        94
S0: Total Energy = -6074.77778189
 C         -9.089193   -1.662463    0.008061
 C         -8.307945   -2.843316   -0.010824
 C         -6.942043   -2.610103   -0.001178
 C         -6.644638   -1.236153    0.025803
 C         -5.227073   -1.078853    0.029675
 C         -4.622718   -2.333007    0.006955
 C         -3.217829   -2.266722    0.007761
 C         -2.740333   -0.959597    0.022212
 S         -8.035064   -0.221255    0.040511
 S         -4.073606    0.207787    0.055006
 C         -5.665030   -3.448342   -0.016798
 H         -8.778130   -3.821224   -0.032319
 H         -2.561438   -3.124846   -0.018161
 C          9.089190    1.662457   -0.008073
 C          8.307942    2.843311    0.010809
 C          6.942040    2.610098    0.001158
 C          6.644635    1.236148   -0.025824
 C          5.227070    1.078848   -0.029701
 C          4.622716    2.333001   -0.006982
 C          3.217826    2.266717   -0.007792
 C          2.740330    0.959591   -0.022243
 S          8.035061    0.221249   -0.040530
 S          4.073604   -0.207793   -0.055036
 C          5.665027    3.448337    0.016773
 H          8.778126    3.821219    0.032306
 H          2.561435    3.124840    0.018130
 C         -1.364924   -0.480343    0.005247
 C         -0.260245   -1.309315    0.286678
 C          1.045582   -0.861711    0.286533
 C          1.364921    0.480337   -0.005278
 C          0.260242    1.309309   -0.286710
 C         -1.045585    0.861705   -0.286564
 H          1.819404   -1.577341    0.542102
 H         -1.819407    1.577335   -0.542133
 C        -10.496664   -1.738322   -0.005032
 C        -11.519138   -0.800153    0.002050
 C        -11.339118    0.663309    0.034717
 O        -10.286209    1.294076    0.062042
 C        -12.695984    1.259447    0.029826
 C        -13.034242    2.600820    0.053708
 C        -14.388883    2.941880    0.041797
 C        -15.364960    1.929398    0.005798
 C        -15.008174    0.575374   -0.017337
 C        -13.655275    0.234596   -0.005046
 C        -12.952382   -1.078202   -0.022326
 C        -13.597333   -2.305873   -0.056020
 C        -15.017586   -2.449813   -0.079062
 N        -16.170163   -2.621885   -0.098968
 C        -12.931968   -3.569084   -0.071804
 N        -12.437770   -4.624899   -0.085613
 H        -10.813682   -2.775062   -0.027226
 H        -12.267060    3.366933    0.080696
 H        -15.798576   -0.161174   -0.044218
 C         10.496661    1.738318    0.005030
 C         11.519138    0.800151   -0.002046
 C         11.339122   -0.663312   -0.034713
 O         10.286216   -1.294082   -0.062043
 C         12.695990   -1.259445   -0.029810
 C         13.034252   -2.600818   -0.053686
 C         14.388894   -2.941874   -0.041764
 C         15.364968   -1.929388   -0.005759
 C         15.008178   -0.575365    0.017370
 C         13.655277   -0.234592    0.005068
 C         12.952381    1.078204    0.022339
 C         13.597325    2.305878    0.056036
 C         15.017578    2.449824    0.079089
 N         16.170154    2.621903    0.099005
 C         12.931955    3.569085    0.071815
 N         12.437750    4.624897    0.085620
 H         10.813677    2.775059    0.027226
 H         12.267073   -3.366933   -0.080679
 H         15.798577    0.161185    0.044257
 C         -5.557405   -4.351365    1.233109
 H         -6.354676   -5.102348    1.230055
 H         -4.596544   -4.877191    1.240637
 C         -5.554891   -4.297527   -1.303801
 H         -6.352934   -5.046879   -1.335501
 H         -4.594646   -4.823886   -1.330540
 C          5.557405    4.351360   -1.233134
 H          6.354676    5.102343   -1.230077
 H          4.596545    4.877185   -1.240666
 C          5.554884    4.297522    1.303776
 H          6.352927    5.046874    1.335478
 H          4.594639    4.823881    1.330512
 F          0.464609    2.609586   -0.595284
 F         -0.464612   -2.609591    0.595254
Cl        -17.063552    2.325598   -0.011560
Cl        -14.830562    4.627471    0.071987
Cl         14.830579   -4.627463   -0.071947
Cl         17.063561   -2.325583    0.011614
 H         -5.631629   -3.672957   -2.199070
 H         -5.637734   -3.765750    2.153995
 H          5.637738    3.765744   -2.154020
 H          5.631619    3.672951    2.199045
        94
T1: Total Energy = -6074.73556290
 C          9.063767   -1.661309    0.017203
 C          8.275358   -2.848823    0.045601
 C          6.917898   -2.614240    0.034641
 C          6.612478   -1.229600   -0.003168
 C          5.218528   -1.074657   -0.010952
 C          4.597163   -2.347253    0.019716
 C          3.215367   -2.282900    0.014724
 C          2.718918   -0.956791   -0.016750
 S          8.018223   -0.213983   -0.025953
 S          4.067896    0.217201   -0.044170
 C          5.644655   -3.458355    0.055655
 H          8.746712   -3.825534    0.073913
 H          2.559123   -3.140395    0.036442
 C         -9.063763    1.661302    0.017246
 C         -8.275355    2.848820    0.045584
 C         -6.917896    2.614237    0.034733
 C         -6.612469    1.229594   -0.002965
 C         -5.218524    1.074660   -0.010689
 C         -4.597160    2.347265    0.019886
 C         -3.215366    2.282910    0.014855
 C         -2.718914    0.956800   -0.016603
 S         -8.018212    0.213972   -0.025670
 S         -4.067889   -0.217197   -0.043913
 C         -5.644662    3.458359    0.055842
 H         -8.746704    3.825537    0.073781
 H         -2.559118    3.140405    0.036441
 C          1.373806   -0.488161   -0.022690
 C          0.236678   -1.348931   -0.024259
 C         -1.056606   -0.901535   -0.025290
 C         -1.373802    0.488170   -0.022577
 C         -0.236672    1.348941   -0.024150
 C          1.056611    0.901544   -0.025272
 H         -1.840431   -1.650720   -0.024634
 H          1.840437    1.650729   -0.024640
 C         10.468552   -1.741719    0.028277
 C         11.495576   -0.799489    0.010155
 C         11.317557    0.667020   -0.035497
 O         10.264776    1.297424   -0.064388
 C         12.674059    1.262164   -0.040785
 C         13.014239    2.602017   -0.078171
 C         14.370437    2.940988   -0.074064
 C         15.342836    1.926750   -0.031920
 C         14.983417    0.572525    0.005075
 C         13.630398    0.234200    0.000290
 C         12.923115   -1.075735    0.031983
 C         13.567254   -2.309694    0.074539
 C         14.986013   -2.455191    0.092336
 N         16.139130   -2.628206    0.108390
 C         12.902800   -3.571501    0.105141
 N         12.412110   -4.629423    0.131301
 H         10.786024   -2.777471    0.058733
 H         12.248573    3.369490   -0.109681
 H         15.772590   -0.165158    0.036224
 C        -10.468549    1.741705    0.028169
 C        -11.495573    0.799468    0.010200
 C        -11.317565   -0.667048   -0.035239
 O        -10.264790   -1.297472   -0.063905
 C        -12.674072   -1.262179   -0.040584
 C        -13.014257   -2.602032   -0.077878
 C        -14.370459   -2.940990   -0.073950
 C        -15.342857   -1.926741   -0.032081
 C        -14.983432   -0.572514    0.004835
 C        -13.630408   -0.234201    0.000238
 C        -12.923109    1.075733    0.031857
 C        -13.567228    2.309710    0.074310
 C        -14.985983    2.455222    0.092129
 N        -16.139101    2.628233    0.108184
 C        -12.902743    3.571500    0.104887
 N        -12.412016    4.629405    0.130994
 H        -10.786028    2.777464    0.058361
 H        -12.248596   -3.369518   -0.109175
 H        -15.772601    0.165181    0.035780
 C          5.545762   -4.374792   -1.184722
 H          6.349949   -5.118171   -1.172814
 H          4.589567   -4.908963   -1.186628
 C          5.537304   -4.293505    1.351937
 H          6.342465   -5.034540    1.394272
 H          4.581608   -4.827765    1.380831
 C         -5.537381    4.293341    1.352252
 H         -6.342594    5.034316    1.394686
 H         -4.581718    4.827659    1.381240
 C         -5.545747    4.374957   -1.184401
 H         -6.349933    5.118334   -1.172386
 H         -4.589554    4.909130   -1.186232
 F         -0.425947    2.686386   -0.024893
 F          0.425956   -2.686376   -0.025121
Cl         17.042928    2.318294   -0.023955
Cl         14.815018    4.626182   -0.121545
Cl        -14.815040   -4.626187   -0.121334
Cl        -17.042953   -2.318274   -0.024362
 H          5.605474   -3.658463    2.240468
 H          5.621765   -3.798652   -2.111878
 H         -5.605519    3.658166    2.240690
 H         -5.621754    3.798950   -2.111639
        94
S1: Total Energy = -6074.71870268
 C          9.066859   -1.662788   -0.013788
 C          8.283371   -2.847218   -0.033224
 C          6.920642   -2.612553   -0.033900
 C          6.618133   -1.232467   -0.012914
 C          5.216387   -1.077717   -0.012296
 C          4.600104   -2.346387   -0.033329
 C          3.214062   -2.282015   -0.033312
 C          2.720415   -0.958713   -0.012471
 S          8.019855   -0.216582    0.003356
 S          4.067752    0.212677    0.007494
 C          5.648016   -3.457255   -0.052722
 H          8.754296   -3.824495   -0.044989
 H          2.558621   -3.140252   -0.047920
 C         -9.066800    1.662671    0.013628
 C         -8.283306    2.847098    0.032988
 C         -6.920577    2.612433    0.033614
 C         -6.618071    1.232347    0.012656
 C         -5.216325    1.077596    0.011966
 C         -4.600041    2.346266    0.032949
 C         -3.213999    2.281893    0.032885
 C         -2.720353    0.958590    0.012051
 S         -8.019796    0.216463   -0.003515
 S         -4.067692   -0.212799   -0.007858
 C         -5.647951    3.457135    0.052359
 H         -8.754228    3.824377    0.044748
 H         -2.558556    3.140130    0.047463
 C          1.373182   -0.487813   -0.006466
 C          0.237099   -1.348325   -0.017650
 C         -1.057184   -0.900561   -0.011919
 C         -1.373121    0.487689    0.006029
 C         -0.237038    1.348201    0.017207
 C          1.057245    0.900437    0.011483
 H         -1.840780   -1.649899   -0.021050
 H          1.840840    1.649775    0.020621
 C         10.476328   -1.741579   -0.006051
 C         11.499623   -0.800851    0.007288
 C         11.319506    0.666631    0.001684
 O         10.265154    1.295389   -0.001781
 C         12.674872    1.262642   -0.001204
 C         13.013537    2.603098   -0.012162
 C         14.369837    2.943727   -0.015427
 C         15.343435    1.929339   -0.007342
 C         14.986333    0.574354    0.004237
 C         13.632813    0.233498    0.007563
 C         12.930743   -1.075431    0.018844
 C         13.575172   -2.311016    0.042434
 C         14.993479   -2.456450    0.054067
 N         16.147127   -2.628912    0.064257
 C         12.910606   -3.572264    0.062248
 N         12.418135   -4.630019    0.079307
 H         10.793742   -2.777952   -0.013888
 H         12.246918    3.370246   -0.018417
 H         15.776378   -0.163033    0.009682
 C        -10.476270    1.741484    0.005967
 C        -11.499610    0.800800   -0.007257
 C        -11.319597   -0.666694   -0.001576
 O        -10.265293   -1.295532    0.001948
 C        -12.675004   -1.262609    0.001499
 C        -13.013761   -2.603041    0.012630
 C        -14.370084   -2.943576    0.016039
 C        -15.343613   -1.929122    0.007924
 C        -14.986418   -0.574164   -0.003826
 C        -13.632875   -0.233400   -0.007296
 C        -12.930708    1.075478   -0.018753
 C        -13.575021    2.311121   -0.042404
 C        -14.993313    2.456709   -0.053948
 N        -16.146939    2.629323   -0.064071
 C        -12.910315    3.572293   -0.062370
 N        -12.417684    4.629972   -0.079542
 H        -10.793655    2.777868    0.013766
 H        -12.247195   -3.370242    0.018901
 H        -15.776415    0.163275   -0.009280
 C          5.547460   -4.305922   -1.340902
 H          6.352929   -5.047220   -1.371054
 H          4.592133   -4.840871   -1.369439
 C          5.542048   -4.360919    1.196559
 H          6.345987   -5.104614    1.196554
 H          4.585775   -4.895001    1.198946
 C         -5.547339    4.305837    1.340511
 H         -6.352809    5.047132    1.370681
 H         -4.592012    4.840790    1.368992
 C         -5.542037    4.360767   -1.196951
 H         -6.345971    5.104468   -1.196926
 H         -4.585760    4.894843   -1.199398
 F         -0.425567    2.684860    0.033998
 F          0.425627   -2.684984   -0.034435
Cl         17.043080    2.323072   -0.011653
Cl         14.812476    4.629905   -0.030061
Cl        -14.812838   -4.629722    0.030883
Cl        -17.043284   -2.322738    0.012418
 H          5.613431   -3.775236    2.118084
 H          5.620456   -3.680158   -2.235599
 H         -5.620293    3.680096    2.235229
 H         -5.613468    3.775061   -2.118458
