       102
S0: Total Energy = -4663.90703378
 C         -9.127733   -1.337678   -0.042944
 C         -8.394233   -2.547905   -0.109621
 C         -7.020658   -2.372311   -0.092919
 C         -6.664660   -1.013595   -0.011797
 C         -5.243263   -0.914962   -0.001622
 C         -4.690774   -2.191437   -0.074146
 C         -3.284425   -2.186301   -0.069482
 C         -2.746040   -0.904506   -0.003120
 S         -8.013315    0.056360    0.044043
 S         -4.033219    0.317870    0.079639
 C         -5.778840   -3.260719   -0.141619
 H         -8.904207   -3.504157   -0.168547
 H         -2.660431   -3.066331   -0.126686
 C          9.127735    1.337682    0.042944
 C          8.394235    2.547909    0.109623
 C          7.020661    2.372315    0.092921
 C          6.664662    1.013600    0.011797
 C          5.243265    0.914968    0.001622
 C          4.690776    2.191443    0.074148
 C          3.284427    2.186306    0.069484
 C          2.746042    0.904513    0.003121
 S          8.013316   -0.056355   -0.044043
 S          4.033220   -0.317864   -0.079641
 C          5.778842    3.260724    0.141622
 H          8.904210    3.504161    0.168549
 H          2.660434    3.066337    0.126690
 C         -1.352246   -0.473060   -0.007015
 C         -0.284424   -1.327040    0.380387
 C          1.020361   -0.843251    0.383472
 C          1.352248    0.473066    0.007016
 C          0.284426    1.327047   -0.380386
 C         -1.020359    0.843257   -0.383471
 H          1.817397   -1.495047    0.717517
 H         -1.817394    1.495054   -0.717517
 C        -10.536154   -1.353681   -0.053516
 C        -11.519180   -0.374355   -0.007724
 C        -11.280445    1.078779    0.073028
 O        -10.202222    1.665490    0.116627
 C        -12.609984    1.730951    0.092930
 C        -12.887176    3.089649    0.161418
 C        -14.222987    3.464454    0.164577
 C        -15.234604    2.498078    0.100291
 C        -14.954932    1.138327    0.032107
 C        -13.611251    0.747045    0.028804
 C        -12.961850   -0.590806   -0.033577
 C        -13.658145   -1.789965   -0.101801
 C        -15.083058   -1.873285   -0.119566
 N        -16.242325   -1.994425   -0.136702
 C        -13.047166   -3.078732   -0.161119
 N        -12.598959   -4.153987   -0.211193
 H        -10.896545   -2.374835   -0.112593
 H        -12.097994    3.832230    0.210424
 H        -15.786472    0.448789   -0.014966
 C         10.536156    1.353683    0.053515
 C         11.519179    0.374356    0.007722
 C         11.280440   -1.078777   -0.073032
 O         10.202214   -1.665485   -0.116629
 C         12.609977   -1.730954   -0.092931
 C         12.887165   -3.089653   -0.161417
 C         14.222974   -3.464463   -0.164576
 C         15.234594   -2.498090   -0.100290
 C         14.954927   -1.138338   -0.032107
 C         13.611247   -0.747051   -0.028806
 C         12.961850    0.590802    0.033574
 C         13.658151    1.789958    0.101798
 C         15.083065    1.873270    0.119563
 N         16.242332    1.994403    0.136699
 C         13.047179    3.078728    0.161114
 N         12.598980    4.153987    0.211185
 H         10.896548    2.374837    0.112593
 H         12.097980   -3.832232   -0.210424
 H         15.786468   -0.448802    0.014966
 C         -5.710432   -4.214422    1.072831
 H         -6.537708   -4.931733    1.041217
 H         -4.771468   -4.778626    1.060989
 C         -5.702232   -4.064521   -1.459507
 H         -6.530259   -4.779037   -1.519503
 H         -4.763975   -4.628026   -1.506878
 C          5.710435    4.214429   -1.072827
 H          6.537711    4.931739   -1.041213
 H          4.771472    4.778633   -1.060985
 C          5.702235    4.064525    1.459511
 H          6.530262    4.779040    1.519507
 H          4.763978    4.628030    1.506883
 H         -5.752307   -3.403865   -2.330489
 H         -5.768472   -3.661191    2.015210
 H          5.768474    3.661199   -2.015206
 H          5.752310    3.403867    2.330492
 O         -0.608051   -2.594115    0.761685
 O          0.608053    2.594121   -0.761684
 C          0.425251   -3.466538    1.212120
 H          1.163602   -3.652405    0.423107
 H          0.928072   -3.063459    2.099154
 H         -0.072422   -4.401819    1.471119
 C         -0.425249    3.466545   -1.212118
 H         -0.928070    3.063467   -2.099154
 H         -1.163601    3.652410   -0.423105
 H          0.072423    4.401826   -1.471115
 F         16.508257   -2.916125   -0.105893
 F         14.575637   -4.755302   -0.228585
 F        -14.575654    4.755292    0.228589
 F        -16.508268    2.916109    0.105895
       102
T1: Total Energy = -4663.86700371
 C          9.110361    1.339756    0.000634
 C          8.371680    2.557894   -0.000294
 C          7.004633    2.380021   -0.000336
 C          6.640677    1.010675    0.000695
 C          5.240290    0.914566    0.000489
 C          4.673402    2.211386   -0.000714
 C          3.290489    2.208103   -0.001043
 C          2.726743    0.906656   -0.000055
 S          8.003508   -0.062769    0.001559
 S          4.034850   -0.325457    0.001249
 C          5.768079    3.277399   -0.001531
 H          8.882706    3.514913   -0.000900
 H          2.669678    3.090600   -0.001946
 C         -9.110362   -1.339758   -0.000633
 C         -8.371680   -2.557896    0.000288
 C         -7.004633   -2.380023    0.000317
 C         -6.640679   -1.010677   -0.000716
 C         -5.240292   -0.914568   -0.000523
 C         -4.673403   -2.211387    0.000673
 C         -3.290490   -2.208104    0.000993
 C         -2.726745   -0.906657    0.000002
 S         -8.003509    0.062767   -0.001565
 S         -4.034851    0.325456   -0.001291
 C         -5.768079   -3.277400    0.001498
 H         -8.882707   -3.514915    0.000898
 H         -2.669678   -3.090601    0.001891
 C          1.367801    0.482367   -0.000046
 C          0.244788    1.390873   -0.000193
 C         -1.045054    0.904813   -0.000168
 C         -1.367802   -0.482368   -0.000015
 C         -0.244790   -1.390874    0.000128
 C          1.045053   -0.904813    0.000106
 H         -1.859753    1.616204    0.000064
 H          1.859752   -1.616205   -0.000127
 C         10.517364    1.359895    0.000666
 C         11.504272    0.375554    0.000914
 C         11.266899   -1.082757    0.001121
 O         10.188672   -1.670879    0.001826
 C         12.596054   -1.734689    0.000384
 C         12.875219   -3.094084    0.000052
 C         14.212442   -3.466998   -0.000885
 C         15.220818   -2.496711   -0.001474
 C         14.938579   -1.134532   -0.001086
 C         13.594894   -0.745633   -0.000118
 C         12.941387    0.591825    0.000528
 C         13.638019    1.798877    0.000948
 C         15.061537    1.883781    0.000425
 N         16.221498    2.005797    0.000015
 C         13.028436    3.088121    0.002109
 N         12.583836    4.166777    0.003069
 H         10.878362    2.381956    0.000169
 H         12.087241   -3.839600    0.000478
 H         15.769025   -0.442078   -0.001578
 C        -10.517365   -1.359897   -0.000655
 C        -11.504272   -0.375555   -0.000893
 C        -11.266897    1.082755   -0.001099
 O        -10.188669    1.670875   -0.001813
 C        -12.596051    1.734689   -0.000345
 C        -12.875215    3.094085   -0.000003
 C        -14.212436    3.467000    0.000953
 C        -15.220814    2.496715    0.001551
 C        -14.938577    1.134536    0.001154
 C        -13.594893    0.745634    0.000165
 C        -12.941387   -0.591825   -0.000494
 C        -13.638021   -1.798875   -0.000913
 C        -15.061539   -1.883778   -0.000384
 N        -16.221500   -2.005792    0.000032
 C        -13.028440   -3.088120   -0.002087
 N        -12.583842   -4.166777   -0.003055
 H        -10.878364   -2.381958   -0.000157
 H        -12.087235    3.839600   -0.000435
 H        -15.769024    0.442082    0.001653
 C          5.702922    4.159412    1.265723
 H          6.538443    4.867531    1.279769
 H          4.770208    4.733706    1.281194
 C          5.703600    4.156341   -1.271000
 H          6.539201    4.864329   -1.286388
 H          4.770941    4.730662   -1.288291
 C         -5.702935   -4.159408   -1.265760
 H         -6.538457   -4.867527   -1.279801
 H         -4.770222   -4.733702   -1.281243
 C         -5.703588   -4.156348    1.270962
 H         -6.539188   -4.864336    1.286356
 H         -4.770928   -4.730668    1.288242
 H          5.750765    3.547062   -2.178743
 H          5.749716    3.552373    2.174985
 H         -5.749739   -3.552365   -2.175020
 H         -5.750744   -3.547072    2.178709
 O          0.534160    2.715509   -0.000063
 O         -0.534161   -2.715509   -0.000004
 C         -0.531626    3.665657   -0.001474
 H         -1.152230    3.560840   -0.898438
 H         -1.153093    3.562544    0.895099
 H         -0.050740    4.644103   -0.002150
 C          0.531624   -3.665658    0.001404
 H          1.153092   -3.562542   -0.895168
 H          1.152228   -3.560843    0.898369
 H          0.050739   -4.644104    0.002077
 F        -16.496307    2.910703    0.002540
 F        -14.566756    4.760034    0.001364
 F         14.566763   -4.760031   -0.001287
 F         16.496312   -2.910698   -0.002445
       102
S1: Total Energy = -4663.85071834
 C          9.117617    1.339770   -0.035504
 C          8.384773    2.552384   -0.115606
 C          7.012132    2.374735   -0.129888
 C          6.650635    1.012920   -0.060809
 C          5.240764    0.917749   -0.080853
 C          4.681224    2.206399   -0.161603
 C          3.291779    2.202641   -0.185064
 C          2.732523    0.907996   -0.124988
 S          8.007915   -0.058672    0.023410
 S          4.035655   -0.318505   -0.033128
 C          5.776683    3.270608   -0.202365
 H          8.895803    3.508416   -0.160602
 H          2.673063    3.084404   -0.248203
 C         -9.117657   -1.339820   -0.035507
 C         -8.384810   -2.552436   -0.115549
 C         -7.012170   -2.374782   -0.129794
 C         -6.650678   -1.012960   -0.060783
 C         -5.240806   -0.917785   -0.080804
 C         -4.681263   -2.206438   -0.161478
 C         -3.291819   -2.202680   -0.184949
 C         -2.732561   -0.908031   -0.124951
 S         -8.007964    0.058630    0.023359
 S         -4.035702    0.318480   -0.033191
 C         -5.776718   -3.270652   -0.202216
 H         -8.895835   -3.508473   -0.160475
 H         -2.673103   -3.084448   -0.248011
 C          1.366638    0.479996   -0.131121
 C          0.247671    1.388632   -0.132215
 C         -1.046099    0.902623   -0.131264
 C         -1.366678   -0.480037   -0.131046
 C         -0.247711   -1.388671   -0.132442
 C          1.046061   -0.902662   -0.131603
 H         -1.859741    1.615225   -0.137798
 H          1.859699   -1.615265   -0.138457
 C         10.529276    1.357358   -0.015857
 C         11.511290    0.376230    0.053783
 C         11.269710   -1.079697    0.142736
 O         10.189356   -1.663543    0.166330
 C         12.596363   -1.732104    0.201368
 C         12.871703   -3.088969    0.292411
 C         14.208029   -3.464315    0.331976
 C         15.219091   -2.497825    0.280119
 C         14.941550   -1.137959    0.188968
 C         13.598350   -0.745467    0.149137
 C         12.952240    0.588202    0.055783
 C         13.651114    1.793421   -0.016588
 C         15.074081    1.876956   -0.005162
 N         16.234656    1.996921    0.000856
 C         13.043579    3.079412   -0.110729
 N         12.599440    4.155911   -0.188953
 H         10.891098    2.377949   -0.068625
 H         12.081562   -3.831194    0.331458
 H         15.773987   -0.448766    0.153716
 C        -10.529314   -1.357397   -0.015862
 C        -11.511298   -0.376242    0.053765
 C        -11.269662    1.079673    0.142746
 O        -10.189284    1.663470    0.166362
 C        -12.596294    1.732128    0.201364
 C        -12.871585    3.089004    0.292381
 C        -14.207898    3.464402    0.331884
 C        -15.218995    2.497954    0.279971
 C        -14.941504    1.138076    0.188842
 C        -13.598317    0.745527    0.149097
 C        -12.952253   -0.588169    0.055776
 C        -13.651142   -1.793383   -0.016528
 C        -15.074108   -1.876924   -0.005000
 N        -16.234680   -1.996913    0.001103
 C        -13.043608   -3.079371   -0.110695
 N        -12.599451   -4.155862   -0.188927
 H        -10.891157   -2.377982   -0.068620
 H        -12.081418    3.831199    0.331457
 H        -15.773967    0.448920    0.153535
 C          5.690029    4.221587    1.012838
 H          6.524990    4.930438    1.001335
 H          4.757145    4.795074    0.981636
 C          5.735083    4.077475   -1.519881
 H          6.572869    4.781787   -1.561262
 H          4.804608    4.651978   -1.584769
 C         -5.735086   -4.077564   -1.519698
 H         -6.572877   -4.781870   -1.561082
 H         -4.804614   -4.652077   -1.584544
 C         -5.690088   -4.221587    1.013030
 H         -6.525058   -4.930427    1.001541
 H         -4.757211   -4.795085    0.981864
 H          5.795471    3.418094   -2.391115
 H          5.722178    3.665689    1.954860
 H         -5.795443   -3.418214   -2.390960
 H         -5.722244   -3.665645    1.955026
 O          0.536470    2.711686   -0.130994
 O         -0.536499   -2.711725   -0.131456
 C         -0.527810    3.664602   -0.117227
 H         -1.152632    3.570508   -1.012280
 H         -1.144165    3.552846    0.781580
 H         -0.044116    4.641501   -0.110094
 C          0.527792   -3.664634   -0.118093
 H          1.152493   -3.570302   -1.013204
 H          1.144267   -3.553103    0.780660
 H          0.044107   -4.641538   -0.111147
 F        -16.493077    2.914409    0.320920
 F        -14.558398    4.755686    0.419989
 F         14.558576   -4.755585    0.420097
 F         16.493188   -2.914229    0.321148
