       114
S0: Total Energy = -4574.28327866
 C          9.134204    1.575516    0.115865
 S          8.096383    0.124175    0.015978
 C          8.337420    2.738570    0.259218
 C          6.692912    1.112289    0.166721
 C          6.976695    2.485220    0.287777
 H          8.795489    3.719584    0.336650
 C          5.279884    0.931552    0.201516
 C          5.691131    3.300665    0.415925
 S          4.144739   -0.370176    0.132097
 C          4.662940    2.173311    0.345713
 C          5.526523    4.293497   -0.756808
 C          5.623388    4.049895    1.765772
 C          2.792010    0.769272    0.285686
 C          3.265524    2.079537    0.394281
 H          4.561192    4.807345   -0.688843
 H          6.316437    5.051898   -0.728584
 H          5.576239    3.779161   -1.721451
 H          6.416778    4.802980    1.824064
 H          4.661046    4.563430    1.869576
 H          5.739298    3.360793    2.607922
 C          1.393581    0.355334    0.275912
 H          2.610908    2.934270    0.513272
 C          0.374873    1.329856    0.270768
 C          0.975271   -1.001958    0.268306
 C         -0.975326    1.002339    0.271203
 H          0.654401    2.373425    0.254823
 C         -0.374938   -1.329477    0.268095
 C         -1.393618   -0.354968    0.276193
 C         -2.792037   -0.768933    0.286372
 S         -4.144785    0.370418    0.132418
 C         -3.265474   -2.079201    0.395170
 C         -5.279863   -0.931383    0.201633
 C         -4.662880   -2.173072    0.346265
 H         -2.610808   -2.933813    0.514770
 C         -6.692889   -1.112184    0.166842
 C         -5.691030   -3.300445    0.416721
 S         -8.096394   -0.124175    0.015744
 C         -6.976617   -2.485094    0.288235
 C         -5.623368   -4.049262    1.766805
 C         -5.526293   -4.293632   -0.755690
 C         -9.134156   -1.575531    0.115973
 C         -8.337332   -2.738514    0.259654
 H         -6.416728   -4.802366    1.825252
 H         -4.661010   -4.562717    1.870850
 H         -5.739388   -3.359909    2.608734
 H         -4.560962   -4.807445   -0.687470
 H         -6.316200   -5.052035   -0.727311
 H         -5.575922   -3.779593   -1.720497
 H         -8.795360   -3.719527    0.337344
 H         -0.654500   -2.372998    0.249684
 O         -1.968431    1.933398    0.261902
 O          1.968339   -1.933017    0.256140
 C         -1.641191    3.319730    0.246827
 H         -1.072570    3.601234    1.140961
 H         -1.072391    3.582370   -0.652892
 H         -2.595809    3.846537    0.241343
 C          1.641084   -3.319325    0.239200
 H          1.073025   -3.602165    1.133269
 H          1.071714   -3.580610   -0.660554
 H          2.595696   -3.846125    0.232302
 C        -10.538601   -1.674946    0.071274
 C        -11.575147   -0.760139   -0.060791
 H        -10.840019   -2.712612    0.161491
 C        -11.413231    0.700341   -0.204504
 C        -13.002560   -1.066417   -0.087280
 O        -10.360469    1.336610   -0.223139
 C        -12.769610    1.273058   -0.324883
 C        -13.727896    0.218299   -0.256116
 C        -13.621230   -2.307936    0.023352
 C        -13.122063    2.586964   -0.479672
 C        -15.070696    0.523162   -0.348867
 C        -15.035885   -2.489526   -0.015945
 C        -12.932282   -3.545917    0.190757
 C        -14.498864    2.928724   -0.577371
 H        -12.357786    3.358161   -0.527273
 C        -15.478940    1.878745   -0.510359
 H        -15.841888   -0.234820   -0.303998
 N        -16.183509   -2.694723   -0.041437
 N        -12.417777   -4.583748    0.328612
 C        -14.934845    4.268769   -0.738394
 C        -16.853795    2.220732   -0.607907
 H        -14.189992    5.058696   -0.788461
 C        -16.278221    4.565491   -0.829718
 H        -17.594769    1.427314   -0.557108
 C        -17.244823    3.533289   -0.763881
 H        -16.600414    5.595504   -0.952821
 H        -18.299964    3.780468   -0.836946
 C         10.538648    1.674874    0.071114
 C         11.575169    0.760007   -0.060771
 H         10.840100    2.712551    0.161088
 C         11.413217   -0.700515   -0.204001
 C         13.002586    1.066244   -0.087422
 O         10.360444   -1.336777   -0.222313
 C         12.769575   -1.273295   -0.324316
 C         13.727886   -0.218535   -0.255926
 C         13.621296    2.307784    0.022778
 C         13.121990   -2.587253   -0.478751
 C         15.070673   -0.523451   -0.348686
 C         15.035957    2.489313   -0.016609
 C         12.932392    3.545844    0.189775
 C         14.498778   -2.929069   -0.576446
 H         12.357693   -3.358447   -0.526077
 C         15.478879   -1.879090   -0.509811
 H         15.841884    0.234528   -0.304095
 N         16.183587    2.694463   -0.042181
 N         12.417932    4.583742    0.327300
 C         14.934721   -4.269169   -0.737107
 C         16.853720   -2.221133   -0.607354
 H         14.189848   -5.059097   -0.786889
 C         16.278085   -4.565945   -0.828437
 H         17.594712   -1.427714   -0.556840
 C         17.244712   -3.533743   -0.762970
 H         16.600249   -5.596001   -0.951261
 H         18.299843   -3.780964   -0.836035
       114
T1: Total Energy = -4574.24365824
 C         -9.109653   -1.580945    0.026969
 S         -8.087448   -0.116188   -0.021015
 C         -8.300019   -2.753615    0.049504
 C         -6.663164   -1.107708   -0.010318
 C         -6.946365   -2.495382    0.029163
 H         -8.754162   -3.738583    0.080181
 C         -5.270668   -0.926209   -0.029014
 C         -5.659166   -3.318610    0.040498
 S         -4.145518    0.388445   -0.069264
 C         -4.630900   -2.189120   -0.002129
 C         -5.555170   -4.231818   -1.201414
 C         -5.530717   -4.153714    1.334323
 C         -2.770869   -0.758167   -0.052111
 C         -3.254201   -2.094246   -0.015597
 H         -4.592079   -4.754041   -1.210826
 H         -6.349510   -4.985838   -1.187635
 H         -5.644023   -3.654741   -2.126903
 H         -6.324786   -4.906507    1.382298
 H         -4.567173   -4.674646    1.357612
 H         -5.602244   -3.520370    2.223834
 C         -1.403030   -0.360085   -0.069292
 H         -2.592778   -2.951574    0.004998
 C         -0.369059   -1.340126   -0.075416
 C         -0.969001    1.012873   -0.077366
 C          0.969000   -1.012885   -0.077362
 H         -0.646963   -2.383636   -0.080727
 C          0.369058    1.340113   -0.075474
 C          1.403029    0.360073   -0.069345
 C          2.770868    0.758157   -0.052214
 S          4.145519   -0.388454   -0.069359
 C          3.254198    2.094237   -0.015743
 C          5.270667    0.926203   -0.029157
 C          4.630898    2.189114   -0.002297
 H          2.592774    2.951564    0.004845
 C          6.663163    1.107704   -0.010468
 C          5.659162    3.318606    0.040297
 S          8.087448    0.116186   -0.021136
 C          6.946362    2.495379    0.028982
 C          5.530714    4.153744    1.334100
 C          5.555162    4.231781   -1.201639
 C          9.109651    1.580945    0.026826
 C          8.300016    2.753614    0.049325
 H          6.324781    4.906541    1.382054
 H          4.567169    4.674674    1.357377
 H          5.602244    3.520423    2.223628
 H          4.592070    4.754002   -1.211062
 H          6.349501    4.985803   -1.187882
 H          5.644014    3.654679   -2.127113
 H          8.754158    3.738583    0.079986
 H          0.646962    2.383623   -0.080833
 O          1.965038   -1.933139   -0.084922
 O         -1.965041    1.933126   -0.084924
 C          1.649556   -3.324064   -0.087605
 H          1.085301   -3.599570    0.810656
 H          1.080224   -3.594994   -0.984038
 H          2.608721   -3.841866   -0.091684
 C         -1.649559    3.324050   -0.087657
 H         -1.085271    3.599581    0.810576
 H         -1.080259    3.594956   -0.984118
 H         -2.608725    3.841852   -0.091716
 C         10.512818    1.687294    0.042814
 C         11.559487    0.766338    0.029563
 H         10.808703    2.729418    0.071678
 C         11.408286   -0.703984   -0.007061
 C         12.981339    1.074504    0.049404
 O         10.358318   -1.344765   -0.031305
 C         12.769058   -1.277182   -0.009055
 C         13.719609   -0.213197    0.024645
 C         13.591581    2.330113    0.085004
 C         13.131132   -2.596857   -0.037583
 C         15.065427   -0.516378    0.028727
 C         15.004835    2.516540    0.101220
 C         12.895339    3.573670    0.109361
 C         14.512605   -2.937469   -0.034168
 H         12.371863   -3.374142   -0.062496
 C         15.484889   -1.879107   -0.000638
 H         15.831836    0.247328    0.053634
 N         16.152315    2.726754    0.115698
 N         12.377773    4.619562    0.130418
 C         14.958910   -4.282942   -0.062791
 C         16.863030   -2.219415    0.002515
 H         14.219300   -5.079011   -0.088058
 C         16.306189   -4.578460   -0.058721
 H         17.598826   -1.419889    0.027653
 C         17.264993   -3.538290   -0.025833
 H         16.636334   -5.613076   -0.080819
 H         18.323242   -3.783245   -0.023037
 C        -10.512820   -1.687293    0.042927
 C        -11.559488   -0.766335    0.029627
 H        -10.808708   -2.729415    0.071808
 C        -11.408282    0.703986   -0.007011
 C        -12.981341   -1.074498    0.049432
 O        -10.358312    1.344765   -0.031230
 C        -12.769053    1.277187   -0.009056
 C        -13.719607    0.213204    0.024631
 C        -13.591587   -2.330105    0.085027
 C        -13.131123    2.596862   -0.037617
 C        -15.065424    0.516388    0.028669
 C        -15.004842   -2.516528    0.101206
 C        -12.895349   -3.573664    0.109414
 C        -14.512595    2.937477   -0.034250
 H        -12.371851    3.374145   -0.062519
 C        -15.484883    1.879117   -0.000732
 H        -15.831836   -0.247316    0.053566
 N        -16.152323   -2.726739    0.115655
 N        -12.377788   -4.619558    0.130487
 C        -14.958897    4.282950   -0.062911
 C        -16.863023    2.219428    0.002373
 H        -14.219284    5.079017   -0.088170
 C        -16.306175    4.578471   -0.058887
 H        -17.598822    1.419904    0.027502
 C        -17.264983    3.538303   -0.026010
 H        -16.636318    5.613087   -0.081014
 H        -18.323231    3.783261   -0.023251
       114
S1: Total Energy = -4574.22748981
 C         -9.115681   -1.583520    0.033258
 S         -8.091140   -0.121114   -0.022544
 C         -8.311278   -2.752917    0.064183
 C         -6.671475   -1.113252   -0.002813
 C         -6.952000   -2.495209    0.044323
 H         -8.765169   -3.737857    0.100410
 C         -5.269792   -0.932642   -0.019734
 C         -5.665308   -3.319048    0.062840
 S         -4.145479    0.379122   -0.063701
 C         -4.636367   -2.190487    0.016032
 C         -5.558841   -4.239123   -1.173942
 C         -5.539608   -4.147424    1.361349
 C         -2.774416   -0.764824   -0.037100
 C         -3.253716   -2.095514    0.005707
 H         -4.595764   -4.761537   -1.178922
 H         -6.353081   -4.993206   -1.157467
 H         -5.646191   -3.667058   -2.102684
 H         -6.334133   -4.899596    1.411716
 H         -4.576500   -4.669026    1.389456
 H         -5.612676   -3.509309    2.247318
 C         -1.400532   -0.362835   -0.054568
 H         -2.593081   -2.953304    0.033624
 C         -0.369157   -1.339222   -0.060749
 C         -0.971374    1.008938   -0.062634
 C          0.971376   -1.008923   -0.062600
 H         -0.644985   -2.383289   -0.066680
 C          0.369159    1.339237   -0.060803
 C          1.400534    0.362850   -0.054591
 C          2.774419    0.764839   -0.037149
 S          4.145480   -0.379110   -0.063721
 C          3.253721    2.095530    0.005604
 C          5.269795    0.932653   -0.019807
 C          4.636372    2.190501    0.015916
 H          2.593088    2.953322    0.033495
 C          6.671478    1.113262   -0.002897
 C          5.665315    3.319062    0.062678
 S          8.091142    0.121121   -0.022602
 C          6.952006    2.495220    0.044188
 C          5.539621    4.147486    1.361158
 C          5.558844    4.239091   -1.174137
 C          9.115685    1.583527    0.033156
 C          8.311285    2.752927    0.064036
 H          6.334146    4.899660    1.411493
 H          4.576513    4.669089    1.389249
 H          5.612692    3.509403    2.247150
 H          4.595769    4.761506   -1.179133
 H          6.353087    4.993173   -1.157694
 H          5.646189    3.666991   -2.102858
 H          8.765177    3.737867    0.100231
 H          0.644987    2.383304   -0.066777
 O          1.966787   -1.927824   -0.070256
 O         -1.966785    1.927840   -0.070320
 C          1.654412   -3.320213   -0.073602
 H          1.090988   -3.596864    0.824640
 H          1.086192   -3.591565   -0.970419
 H          2.615056   -3.835063   -0.077721
 C         -1.654409    3.320228   -0.073711
 H         -1.090979    3.596906    0.824519
 H         -1.086194    3.591553   -0.970540
 H         -2.615053    3.835079   -0.077839
 C         10.523654    1.687363    0.048650
 C         11.566091    0.767598    0.027856
 H         10.819776    2.729359    0.084437
 C         11.412724   -0.702638   -0.021682
 C         12.991933    1.072936    0.049679
 O         10.361248   -1.341081   -0.050362
 C         12.772146   -1.276908   -0.030846
 C         13.724705   -0.213762    0.011867
 C         13.602769    2.328515    0.097573
 C         13.132169   -2.596817   -0.072415
 C         15.071046   -0.520422    0.011567
 C         15.015835    2.514015    0.114023
 C         12.907192    3.571608    0.135911
 C         14.513332   -2.940076   -0.074092
 H         12.371580   -3.372581   -0.103657
 C         15.487769   -1.883137   -0.031447
 H         15.838630    0.241870    0.042947
 N         16.163789    2.723172    0.129152
 N         12.389366    4.617444    0.168629
 C         14.957157   -4.285498   -0.116381
 C         16.865261   -2.226427   -0.033306
 H         14.216096   -5.080006   -0.148549
 C         16.304310   -4.583887   -0.116848
 H         17.602625   -1.428584   -0.001361
 C         17.264854   -3.545910   -0.074964
 H         16.632348   -5.618905   -0.149454
 H         18.322717   -3.792663   -0.075836
 C        -10.523650   -1.687359    0.048740
 C        -11.566090   -0.767599    0.027900
 H        -10.819769   -2.729355    0.084562
 C        -11.412731    0.702637   -0.021679
 C        -12.991930   -1.072943    0.049712
 O        -10.361258    1.341085   -0.050361
 C        -12.772155    1.276900   -0.030873
 C        -13.724709    0.213750    0.011859
 C        -13.602760   -2.328525    0.097630
 C        -13.132184    2.596805   -0.072483
 C        -15.071052    0.520403    0.011539
 C        -15.015824   -2.514036    0.114071
 C        -12.907173   -3.571613    0.136001
 C        -14.513349    2.940058   -0.074185
 H        -12.371599    3.372572   -0.103739
 C        -15.487781    1.883115   -0.031519
 H        -15.838632   -0.241891    0.042934
 N        -16.163776   -2.723201    0.129193
 N        -12.389338   -4.617443    0.168727
 C        -14.957180    4.285476   -0.116518
 C        -16.865275    2.226398   -0.033402
 H        -14.216123    5.079986   -0.148702
 C        -16.304335    4.583859   -0.117008
 H        -17.602635    1.428552   -0.001441
 C        -17.264874    3.545877   -0.075103
 H        -16.632377    5.618874   -0.149648
 H        -18.322738    3.792625   -0.075994
