       114
S0: Total Energy = -4772.75064679
 C         -9.100574   -1.732025    0.201381
 S         -8.083475   -0.268938    0.059856
 C         -8.288362   -2.874039    0.416560
 C         -6.668784   -1.225166    0.288310
 C         -6.933523   -2.596344    0.465429
 H         -8.731834   -3.858513    0.527793
 C         -5.260620   -1.019074    0.345071
 C         -5.638358   -3.382900    0.659527
 S         -4.145826    0.298582    0.247344
 C         -4.627094   -2.242694    0.558946
 C         -5.433102   -4.426979   -0.461183
 C         -5.588330   -4.066213    2.044701
 C         -2.779179   -0.810425    0.477444
 C         -3.232949   -2.122624    0.635185
 H         -4.463644   -4.924490   -0.346707
 H         -6.214460   -5.193305   -0.415587
 H         -5.466224   -3.958901   -1.449805
 H         -6.370531   -4.829124    2.121712
 H         -4.620158   -4.557259    2.192902
 H         -5.733938   -3.340102    2.850370
 C         -1.387219   -0.375447    0.466395
 H         -2.566612   -2.958108    0.811873
 C         -0.355073   -1.335639    0.458193
 C         -0.990257    0.988187    0.458382
 C          0.990263   -0.988180    0.458424
 H         -0.620417   -2.382802    0.434084
 C          0.355080    1.335647    0.458151
 C          1.387225    0.375455    0.466396
 C          2.779185    0.810433    0.477445
 S          4.145833   -0.298574    0.247352
 C          3.232954    2.122634    0.635179
 C          5.260625    1.019085    0.345064
 C          4.627098    2.242705    0.558934
 H          2.566615    2.958116    0.811866
 C          6.668789    1.225177    0.288301
 C          5.638362    3.382912    0.659509
 S          8.083480    0.268949    0.059852
 C          6.933527    2.596357    0.465413
 C          5.588334    4.066232    2.044680
 C          5.433103    4.426986   -0.461205
 C          9.100577    1.732038    0.201366
 C          8.288366    2.874053    0.416542
 H          6.370534    4.829144    2.121687
 H          4.620162    4.557277    2.192880
 H          5.733943    3.340124    2.850353
 H          4.463646    4.924497   -0.346730
 H          6.214461    5.193312   -0.415613
 H          5.466225    3.958904   -1.449825
 H          8.731837    3.858527    0.527768
 H          0.620425    2.382808    0.434004
 O          1.997476   -1.903586    0.443524
 O         -1.997468    1.903594    0.443440
 C          1.690470   -3.294970    0.422204
 H          1.126581   -3.588356    1.315406
 H          1.124965   -3.561624   -0.478296
 H          2.652695   -3.807619    0.413873
 C         -1.690462    3.294977    0.422100
 H         -1.126579    3.588376    1.315301
 H         -1.124952    3.561616   -0.478401
 H         -2.652687    3.807625    0.413755
 C         10.500767    1.856893    0.126976
 C         11.548872    0.965783   -0.070630
 H         10.788199    2.894432    0.255920
 C         11.407012   -0.489861   -0.271017
 C         12.968704    1.297507   -0.118783
 O         10.364554   -1.143104   -0.293063
 C         12.768608   -1.034226   -0.444362
 C         13.711851    0.031707   -0.354674
 C         13.570834    2.543998    0.022920
 C         13.139584   -2.334648   -0.660192
 C         15.056899   -0.243450   -0.489052
 C         14.981003    2.750931   -0.041430
 C         12.867075    3.764224    0.248869
 C         14.518110   -2.647232   -0.802627
 H         12.388057   -3.117183   -0.721894
 C         15.484036   -1.584850   -0.715001
 H         15.815659    0.525541   -0.430163
 N         16.124051    2.977599   -0.084726
 N         12.341384    4.788959    0.434106
 C         14.969950   -3.973808   -1.028684
 C         16.861494   -1.892938   -0.856813
 H         14.238247   -4.773962   -1.094602
 C         16.311621   -4.253010   -1.163849
 H         17.613072   -1.112599   -0.795330
 C         17.238324   -3.194975   -1.073922
 H         16.673497   -5.260942   -1.336890
 C        -10.500763   -1.856881    0.126999
 C        -11.548872   -0.965775   -0.070607
 H        -10.788194   -2.894420    0.255951
 C        -11.407019    0.489867   -0.271019
 C        -12.968702   -1.297504   -0.118749
 O        -10.364565    1.143116   -0.293070
 C        -12.768618    1.034223   -0.444376
 C        -13.711856   -0.031713   -0.354670
 C        -13.570827   -2.543994    0.022994
 C        -13.139599    2.334638   -0.660232
 C        -15.056904    0.243434   -0.489061
 C        -14.980994   -2.750938   -0.041353
 C        -12.867060   -3.764208    0.248987
 C        -14.518126    2.647212   -0.802680
 H        -12.388076    3.117176   -0.721946
 C        -15.484047    1.584827   -0.715038
 H        -15.815660   -0.525560   -0.430161
 N        -16.124040   -2.977616   -0.084645
 N        -12.341361   -4.788932    0.434262
 C        -14.969972    3.973782   -1.028765
 C        -16.861505    1.892906   -0.856864
 H        -14.238273    4.773938   -1.094696
 C        -16.311643    4.252974   -1.163943
 H        -17.613081    1.112564   -0.795370
 C        -17.238342    3.194936   -1.074001
 H        -16.673523    5.260901   -1.337006
 F        -18.546847    3.491739   -1.209366
 F         18.546829   -3.491788   -1.209273
       114
T1: Total Energy = -4772.71149500
 C          9.073185    1.753257   -0.008341
 S          8.079753    0.269784    0.060395
 C          8.241548    2.910740   -0.004149
 C          6.637773    1.234191    0.092294
 C          6.893933    2.626961    0.051248
 H          8.675580    3.904424   -0.043119
 C          5.249834    1.026181    0.144989
 C          5.591864    3.425882    0.076595
 S          4.151098   -0.309690    0.205973
 C          4.586340    2.277035    0.138088
 C          5.415919    4.265571   -1.208589
 C          5.502326    4.329859    1.326438
 C          2.755346    0.811030    0.218653
 C          3.212208    2.156112    0.179897
 H          4.442526    4.768294   -1.204965
 H          6.194507    5.033280   -1.271126
 H          5.477352    3.638657   -2.103409
 H          6.283647    5.096906    1.298177
 H          4.531219    4.835661    1.361723
 H          5.622885    3.748896    2.245901
 C          1.395301    0.387005    0.248978
 H          2.534553    3.000877    0.177791
 C          0.343368    1.347281    0.259050
 C          0.988281   -0.994249    0.261466
 C         -0.988271    0.994258    0.261471
 H          0.601162    2.395946    0.262868
 C         -0.343358   -1.347271    0.259034
 C         -1.395291   -0.386995    0.248970
 C         -2.755336   -0.811020    0.218633
 S         -4.151087    0.309702    0.205969
 C         -3.212200   -2.156100    0.179858
 C         -5.249824   -1.026167    0.144950
 C         -4.586332   -2.277021    0.138036
 H         -2.534545   -3.000865    0.177740
 C         -6.637763   -1.234175    0.092249
 C         -5.591857   -3.425867    0.076525
 S         -8.079742   -0.269766    0.060378
 C         -6.893924   -2.626943    0.051180
 C         -5.502325   -4.329862    1.326355
 C         -5.415908   -4.265538   -1.208670
 C         -9.073176   -1.753237   -0.008401
 C         -8.241539   -2.910720   -0.004224
 H         -6.283647   -5.096907    1.298081
 H         -4.531219   -4.835666    1.361638
 H         -5.622887   -3.748910    2.245826
 H         -4.442515   -4.768263   -1.205049
 H         -6.194497   -5.033245   -1.271221
 H         -5.477335   -3.638612   -2.103482
 H         -8.675572   -3.904403   -0.043213
 H         -0.601152   -2.395937    0.262838
 O         -2.001655    1.894665    0.271669
 O          2.001665   -1.894656    0.271662
 C         -1.713026    3.291996    0.271669
 H         -1.147778    3.574711    1.166902
 H         -1.155473    3.576471   -0.627840
 H         -2.682027    3.791004    0.276444
 C          1.713035   -3.291987    0.271647
 H          1.147780   -3.574710    1.166872
 H          1.155491   -3.576453   -0.627870
 H          2.682037   -3.790995    0.276424
 C        -10.473089   -1.884539   -0.062004
 C        -11.536280   -0.981956   -0.080589
 H        -10.749786   -2.931787   -0.095053
 C        -11.412688    0.491131   -0.043752
 C        -12.950212   -1.315669   -0.138782
 O        -10.375908    1.151633    0.008218
 C        -12.782407    1.039328   -0.081238
 C        -13.712903   -0.040702   -0.138331
 C        -13.537840   -2.581938   -0.187727
 C        -13.169944    2.352214   -0.066816
 C        -15.063417    0.235307   -0.181133
 C        -14.946378   -2.793899   -0.241887
 C        -12.820115   -3.813343   -0.190033
 C        -14.555771    2.666348   -0.110131
 H        -12.426979    3.144159   -0.022886
 C        -15.508930    1.590762   -0.167885
 H        -15.814082   -0.542565   -0.225037
 N        -16.088917   -3.025853   -0.286940
 N        -12.285602   -4.850904   -0.194578
 C        -15.025247    4.005225   -0.098198
 C        -16.892223    1.899803   -0.211253
 H        -14.302405    4.814958   -0.054724
 C        -16.373444    4.285808   -0.140871
 H        -17.635170    1.110011   -0.255252
 C        -17.287062    3.215095   -0.197061
 H        -16.748767    5.303577   -0.132482
 C         10.473098    1.884559   -0.061942
 C         11.536283    0.981970   -0.080544
 H         10.749798    2.931806   -0.094973
 C         11.412676   -0.491116   -0.043707
 C         12.950219    1.315669   -0.138751
 O         10.375889   -1.151606    0.008266
 C         12.782388   -1.039328   -0.081227
 C         13.712895    0.040693   -0.138330
 C         13.537864    2.581931   -0.187688
 C         13.169912   -2.352218   -0.066828
 C         15.063405   -0.235329   -0.181167
 C         14.946406    2.793867   -0.241867
 C         12.820161    3.813348   -0.189972
 C         14.555734   -2.666366   -0.110178
 H         12.426940   -3.144156   -0.022889
 C         15.508904   -1.590790   -0.167944
 H         15.814076    0.542536   -0.225080
 N         16.088949    3.025798   -0.286932
 N         12.285673    4.850922   -0.194493
 C         15.025197   -4.005248   -0.098270
 C         16.892193   -1.899844   -0.211349
 H         14.302347   -4.814974   -0.054786
 C         16.373390   -4.285845   -0.140979
 H         17.635146   -1.110060   -0.255358
 C         17.287018   -3.215141   -0.197181
 H         16.748702   -5.303617   -0.132611
 F         18.602466   -3.511340   -0.238403
 F        -18.602514    3.511281   -0.238247
       114
S1: Total Energy = -4772.69598783
 C          9.079006    1.755831   -0.016053
 S          8.083301    0.274381    0.056159
 C          8.252241    2.910382   -0.016700
 C          6.645675    1.239580    0.082907
 C          6.899264    2.627008    0.038068
 H          8.685942    3.904160   -0.058271
 C          5.248932    1.032169    0.134522
 C          5.597514    3.426534    0.058988
 S          4.151004   -0.301088    0.197228
 C          4.591438    2.278420    0.122588
 C          5.423516    4.262336   -1.229106
 C          5.505895    4.334623    1.305811
 C          2.758529    0.817243    0.204693
 C          3.211705    2.157381    0.162595
 H          4.450344    4.765588   -1.228673
 H          6.202398    5.029664   -1.292877
 H          5.486227    3.632557   -2.121823
 H          6.287145    5.101708    1.276315
 H          4.534796    4.840740    1.338148
 H          5.625184    3.756580    2.227282
 C          1.393075    0.389712    0.235030
 H          2.534730    3.002718    0.156292
 C          0.343584    1.346679    0.244885
 C          0.990358   -0.990499    0.247342
 C         -0.990242    0.990765    0.247342
 H          0.599420    2.395827    0.248657
 C         -0.343467   -1.346413    0.244846
 C         -1.392958   -0.389446    0.234989
 C         -2.758411   -0.816979    0.204616
 S         -4.150890    0.301347    0.197145
 C         -3.211581   -2.157117    0.162484
 C         -5.248812   -1.031913    0.134403
 C         -4.591313   -2.278161    0.122455
 H         -2.534602   -3.002452    0.156177
 C         -6.645553   -1.239328    0.082770
 C         -5.597382   -3.426279    0.058825
 S         -8.083185   -0.274135    0.056023
 C         -6.899135   -2.626757    0.037908
 C         -5.505771   -4.334389    1.305633
 C         -5.423371   -4.262059   -1.229282
 C         -9.078886   -1.755591   -0.016215
 C         -8.252109   -2.910134   -0.016871
 H         -6.287016   -5.101477    1.276116
 H         -4.534669   -4.840502    1.337971
 H         -5.625071   -3.756363    2.227113
 H         -4.450198   -4.765309   -1.228849
 H         -6.202251   -5.029386   -1.293073
 H         -5.486075   -3.632264   -2.121989
 H         -8.685803   -3.903914   -0.058459
 H         -0.599304   -2.395561    0.248588
 O         -2.002939    1.889788    0.257349
 O          2.003056   -1.889522    0.257350
 C         -1.717358    3.288497    0.258253
 H         -1.153067    3.571337    1.153860
 H         -1.160707    3.574199   -0.641242
 H         -2.687729    3.784616    0.263278
 C          1.717475   -3.288231    0.258215
 H          1.153164   -3.571092    1.153802
 H          1.160844   -3.573913   -0.641299
 H          2.687846   -3.784350    0.263250
 C        -10.483402   -1.884721   -0.068454
 C        -11.542666   -0.983360   -0.081670
 H        -10.760108   -2.932014   -0.104753
 C        -11.417614    0.489738   -0.038100
 C        -12.960882   -1.315019   -0.138283
 O        -10.379541    1.148557    0.014166
 C        -12.786443    1.038555   -0.068570
 C        -13.718606   -0.041118   -0.128468
 C        -13.548347   -2.581484   -0.193362
 C        -13.172529    2.351782   -0.045918
 C        -15.070010    0.237933   -0.165452
 C        -14.956811   -2.793209   -0.244024
 C        -12.830562   -3.812388   -0.206326
 C        -14.558382    2.668150   -0.082926
 H        -12.428415    3.142547   -0.000204
 C        -15.513394    1.593410   -0.143371
 H        -15.821621   -0.538920   -0.211097
 N        -16.099809   -3.024697   -0.286391
 N        -12.295397   -4.849876   -0.219651
 C        -15.025999    4.007050   -0.062113
 C        -16.896356    1.905050   -0.180377
 H        -14.301950    4.815618   -0.016621
 C        -16.374399    4.290097   -0.098726
 H        -17.640665    1.116628   -0.226136
 C        -17.289387    3.220993   -0.157693
 H        -16.748134    5.308369   -0.083513
 C         10.483522    1.884913   -0.068289
 C         11.542701    0.983459   -0.081515
 H         10.760289    2.932188   -0.104576
 C         11.417447   -0.489620   -0.037947
 C         12.960966    1.314931   -0.138133
 O         10.379274   -1.148289    0.014247
 C         12.786198   -1.038626   -0.068514
 C         13.718507    0.040923   -0.128392
 C         13.548649    2.581298   -0.193180
 C         13.172106   -2.351906   -0.045952
 C         15.069871   -0.238309   -0.165438
 C         14.957153    2.792753   -0.243872
 C         12.831109    3.812346   -0.206086
 C         14.557915   -2.668460   -0.083027
 H         12.427885   -3.142572   -0.000249
 C         15.513071   -1.593847   -0.143446
 H         15.821584    0.538448   -0.211077
 N         16.100203    3.023981   -0.286258
 N         12.296210    4.849972   -0.219385
 C         15.025350   -4.007425   -0.062304
 C         16.895990   -1.905674   -0.180524
 H         14.301193   -4.815897   -0.016830
 C         16.373710   -4.290654   -0.098985
 H         17.640404   -1.117351   -0.226269
 C         17.288842   -3.221671   -0.157929
 H         16.747307   -5.308978   -0.083843
 F         18.604151   -3.519703   -0.193182
 F        -18.604738    3.518847   -0.192877
