       114
S0: Total Energy = -4971.20301470
 C         -9.058351   -1.940020    0.234401
 S         -8.074793   -0.454155    0.090567
 C         -8.219624   -3.063521    0.447284
 C         -6.638517   -1.378078    0.315255
 C         -6.871547   -2.755225    0.492910
 H         -8.640446   -4.057744    0.559327
 C         -5.235628   -1.139610    0.368799
 C         -5.558134   -3.511699    0.684450
 S         -4.151725    0.203442    0.268329
 C         -4.573704   -2.348457    0.581371
 C         -5.330484   -4.551298   -0.436100
 C         -5.489427   -4.193116    2.069807
 C         -2.759641   -0.873927    0.495713
 C         -3.182645   -2.196326    0.654397
 H         -4.348709   -5.024552   -0.323745
 H         -6.092480   -5.336705   -0.387671
 H         -5.377739   -4.085050   -1.425005
 H         -6.253082   -4.974458    2.148353
 H         -4.509574   -4.660909    2.216379
 H         -5.650842   -3.470433    2.875542
 C         -1.378098   -0.407219    0.483006
 H         -2.496674   -3.016040    0.829621
 C         -0.324275   -1.343577    0.474413
 C         -1.012668    0.965245    0.474504
 C          1.012683   -0.965199    0.474536
 H         -0.565491   -2.396595    0.450347
 C          0.324291    1.343623    0.474376
 C          1.378113    0.407264    0.483001
 C          2.759657    0.873973    0.495702
 S          4.151738   -0.203400    0.268319
 C          3.182662    2.196371    0.654375
 C          5.235643    1.139652    0.368774
 C          4.573721    2.348502    0.581341
 H          2.496692    3.016087    0.829600
 C          6.638532    1.378118    0.315223
 C          5.558153    3.511743    0.684410
 S          8.074805    0.454193    0.090533
 C          6.871565    2.755267    0.492870
 C          5.489452    4.193168    2.069763
 C          5.330501    4.551335   -0.436145
 C          9.058366    1.940056    0.234364
 C          8.219641    3.063560    0.447239
 H          6.253107    4.974509    2.148302
 H          4.509600    4.660962    2.216336
 H          5.650869    3.470489    2.875501
 H          4.348726    5.024592   -0.323789
 H          6.092497    5.336742   -0.387723
 H          5.377751    4.085082   -1.425048
 H          8.640465    4.057782    0.559277
 H          0.565508    2.396640    0.450276
 O          2.040638   -1.857086    0.459373
 O         -2.040621    1.857132    0.459307
 C          1.765459   -3.255198    0.440281
 H          1.208355   -3.559730    1.334002
 H          1.206065   -3.536000   -0.459730
 H          2.739088   -3.745816    0.432667
 C         -1.765443    3.255244    0.440219
 H         -1.208338    3.559773    1.333940
 H         -1.206048    3.536048   -0.459792
 H         -2.739071    3.745862    0.432605
 C         10.455165    2.096211    0.163918
 C         11.523639    1.227965   -0.029700
 H         10.719434    3.139937    0.292740
 C         11.414342   -0.229590   -0.228832
 C         12.936155    1.590540   -0.073272
 O         10.388285   -0.907585   -0.254089
 C         12.789687   -0.744781   -0.397009
 C         13.707434    0.341576   -0.305279
 C         13.510715    2.849787    0.069663
 C         13.186175   -2.037995   -0.609647
 C         15.058951    0.093524   -0.435116
 C         14.916524    3.085528    0.010227
 C         12.780035    4.054671    0.292216
 C         14.571654   -2.321417   -0.746890
 H         12.450843   -2.835265   -0.672562
 C         15.513143   -1.237661   -0.657437
 H         15.801758    0.877809   -0.374870
 N         16.055310    3.333333   -0.029490
 N         12.231315    5.067713    0.474824
 C         15.046799   -3.640030   -0.969048
 C         16.899847   -1.515463   -0.794247
 H         14.355470   -4.473366   -1.040217
 C         16.392086   -3.865735   -1.095424
 H         17.633221   -0.718142   -0.731378
 C         17.319925   -2.801423   -1.007811
 C        -10.455149   -2.096183    0.163953
 C        -11.523634   -1.227951   -0.029673
 H        -10.719410   -3.139911    0.292781
 C        -11.414362    0.229604   -0.228820
 C        -12.936143   -1.590550   -0.073244
 O        -10.388316    0.907616   -0.254093
 C        -12.789715    0.744768   -0.397018
 C        -13.707444   -0.341604   -0.305276
 C        -13.510675   -2.849808    0.069710
 C        -13.186222    2.037971   -0.609681
 C        -15.058963   -0.093577   -0.435127
 C        -14.916479   -3.085585    0.010271
 C        -12.779965   -4.054669    0.292287
 C        -14.571706    2.321367   -0.746939
 H        -12.450904    2.835253   -0.672604
 C        -15.513176    1.237596   -0.657474
 H        -15.801758   -0.877873   -0.374875
 N        -16.055257   -3.333424   -0.029445
 N        -12.231214   -5.067688    0.474925
 C        -15.046872    3.639968   -0.969124
 C        -16.899884    1.515372   -0.794300
 H        -14.355557    4.473315   -1.040302
 C        -16.392161    3.865648   -1.095514
 H        -17.633246    0.718040   -0.731422
 C        -17.319983    2.801322   -1.007889
 F        -18.623154    3.093924   -1.141033
 F         18.623093   -3.094051   -1.140939
 F         16.872720   -5.100976   -1.306093
 F        -16.872816    5.100877   -1.306208
       114
T1: Total Energy = -4971.16384223
 C          9.029704    1.962150    0.023102
 S          8.070615    0.455937    0.083740
 C          8.171824    3.100287    0.040892
 C          6.607194    1.386520    0.128619
 C          6.831377    2.785104    0.098756
 H          8.582358    4.104127    0.008693
 C          5.224572    1.146254    0.183449
 C          5.511661    3.553833    0.135486
 S          4.156726   -0.214865    0.236041
 C          4.532836    2.381849    0.190120
 C          5.312021    4.400326   -1.141767
 C          5.406917    4.445073    1.393200
 C          2.735957    0.873810    0.262313
 C          3.162092    2.229321    0.235142
 H          4.327310    4.880450   -1.130582
 H          6.072651    5.186183   -1.199848
 H          5.384792    3.782857   -2.042285
 H          6.172001    5.228452    1.368671
 H          4.425555    4.930075    1.435626
 H          5.542711    3.859179    2.307400
 C          1.386021    0.418971    0.290195
 H          2.465558    3.058458    0.245233
 C          0.312324    1.354939    0.299048
 C          1.010727   -0.971429    0.301162
 C         -1.010771    0.971337    0.301181
 H          0.545716    2.409337    0.300239
 C         -0.312368   -1.355031    0.299035
 C         -1.386065   -0.419063    0.290200
 C         -2.736001   -0.873901    0.262320
 S         -4.156771    0.214774    0.236071
 C         -3.162137   -2.229412    0.235130
 C         -5.224617   -1.146343    0.183464
 C         -4.532881   -2.381939    0.190112
 H         -2.465603   -3.058549    0.245203
 C         -6.607239   -1.386609    0.128635
 C         -5.511707   -3.553922    0.135464
 S         -8.070659   -0.456024    0.083778
 C         -6.831423   -2.785192    0.098749
 C         -5.406959   -4.445182    1.393163
 C         -5.312071   -4.400395   -1.141803
 C         -9.029747   -1.962236    0.023110
 C         -8.171870   -3.100375    0.040881
 H         -6.172043   -5.228561    1.368625
 H         -4.425596   -4.930185    1.435579
 H         -5.542749   -3.859302    2.307373
 H         -4.327361   -4.880520   -1.130629
 H         -6.072702   -5.186251   -1.199894
 H         -5.384845   -3.782913   -2.042311
 H         -8.582405   -4.104214    0.008664
 H         -0.545760   -2.409428    0.300218
 O         -2.044455    1.848162    0.309662
 O          2.044411   -1.848253    0.309626
 C         -1.787604    3.251755    0.308910
 H         -1.229083    3.547506    1.204152
 H         -1.236248    3.548124   -0.590575
 H         -2.767635    3.728681    0.313106
 C          1.787559   -3.251847    0.308860
 H          1.229046   -3.547607    1.204104
 H          1.236196   -3.548206   -0.590624
 H          2.767590   -3.728773    0.313043
 C        -10.425860   -2.125017   -0.037433
 C        -11.508554   -1.245887   -0.071954
 H        -10.679534   -3.178303   -0.062780
 C        -11.417902    0.228822   -0.047303
 C        -12.914536   -1.611299   -0.139175
 O        -10.398521    0.914992    0.008896
 C        -12.800595    0.746693   -0.103395
 C        -13.704907   -0.353913   -0.158934
 C        -13.474093   -2.890242   -0.180134
 C        -13.213469    2.051710   -0.106054
 C        -15.060955   -0.106074   -0.218546
 C        -14.877424   -3.131881   -0.244677
 C        -12.730046   -4.105835   -0.162891
 C        -14.605243    2.335589   -0.167083
 H        -12.487389    2.858732   -0.062579
 C        -15.533333    1.238553   -0.223842
 H        -15.795052   -0.899547   -0.262551
 N        -16.014951   -3.385702   -0.297575
 N        -12.173101   -5.131425   -0.151633
 C        -15.097584    3.665967   -0.173800
 C        -16.924804    1.516404   -0.285443
 H        -14.415732    4.509067   -0.131737
 C        -16.447975    3.891681   -0.234221
 H        -17.649108    0.709493   -0.329171
 C        -17.362412    2.814904   -0.290098
 C         10.425817    2.124946   -0.037441
 C         11.508536    1.245847   -0.071978
 H         10.679472    3.178238   -0.062769
 C         11.417951   -0.228867   -0.047355
 C         12.914501    1.611320   -0.139192
 O         10.398603   -0.915086    0.008854
 C         12.800667   -0.746676   -0.103436
 C         13.704932    0.353970   -0.158960
 C         13.473984    2.890296   -0.180129
 C         13.213599   -2.051675   -0.106099
 C         15.060991    0.106191   -0.218562
 C         14.877299    3.132029   -0.244661
 C         12.729854    4.105838   -0.162867
 C         14.605385   -2.335493   -0.167119
 H         12.487554   -2.858729   -0.062637
 C         15.533427   -1.238415   -0.223863
 H         15.795054    0.899695   -0.262553
 N         16.014807    3.385939   -0.297549
 N         12.172818    5.131379   -0.151585
 C         15.097786   -3.665849   -0.173840
 C         16.924911   -1.516205   -0.285452
 H         14.415969   -4.508979   -0.131789
 C         16.448186   -3.891503   -0.234250
 H         17.649180   -0.709262   -0.329168
 C         17.362577   -2.814686   -0.290111
 F         18.671988   -3.106125   -0.347866
 F        -18.671810    3.106402   -0.347864
 F        -16.944626    5.139217   -0.242364
 F         16.944892   -5.139018   -0.242396
       114
S1: Total Energy = -4971.14837245
 C          9.035587    1.965211    0.015268
 S          8.074068    0.460846    0.076599
 C          8.182502    3.100597    0.029990
 C          6.615003    1.392275    0.117885
 C          6.836754    2.785600    0.086585
 H          8.592664    4.104618   -0.003055
 C          5.223584    1.152281    0.171497
 C          5.517269    3.554823    0.120272
 S          4.156437   -0.206328    0.223946
 C          4.537967    2.383397    0.175452
 C          5.319265    4.399209   -1.158749
 C          5.410546    4.448410    1.376252
 C          2.739081    0.880081    0.247358
 C          3.161573    2.230573    0.218991
 H          4.334522    4.879405   -1.150048
 H          6.079826    5.185135   -1.217021
 H          5.393629    3.780163   -2.058055
 H          6.175652    5.231775    1.351537
 H          4.429239    4.933816    1.416475
 H          5.545002    3.864092    2.291663
 C          1.383686    0.421529    0.274775
 H          2.465718    3.060368    0.226876
 C          0.312567    1.354202    0.283141
 C          1.012718   -0.967642    0.285409
 C         -1.012709    0.967659    0.285393
 H          0.543975    2.409035    0.283898
 C         -0.312558   -1.354185    0.283148
 C         -1.383676   -0.421511    0.274766
 C         -2.739071   -0.880064    0.247341
 S         -4.156428    0.206344    0.223935
 C         -3.161562   -2.230556    0.218971
 C         -5.223574   -1.152266    0.171480
 C         -4.537956   -2.383381    0.175429
 H         -2.465706   -3.060350    0.226851
 C         -6.614993   -1.392261    0.117864
 C         -5.517256   -3.554808    0.120242
 S         -8.074059   -0.460833    0.076579
 C         -6.836742   -2.785586    0.086558
 C         -5.410533   -4.448401    1.376217
 C         -5.319252   -4.399188   -1.158783
 C         -9.035576   -1.965199    0.015249
 C         -8.182489   -3.100584    0.029960
 H         -6.175640   -5.231766    1.351500
 H         -4.429226   -4.933809    1.416437
 H         -5.544987   -3.864089    2.291631
 H         -4.334510   -4.879383   -1.150086
 H         -6.079814   -5.185113   -1.217059
 H         -5.393617   -3.780137   -2.058086
 H         -8.592650   -4.104605   -0.003087
 H         -0.543966   -2.409017    0.283913
 O         -2.045636    1.843200    0.293529
 O          2.045645   -1.843182    0.293561
 C         -1.791753    3.248076    0.293201
 H         -1.234190    3.544208    1.188730
 H         -1.241275    3.545319   -0.606353
 H         -2.773050    3.722163    0.297465
 C          1.791762   -3.248058    0.293255
 H          1.234189   -3.544174    1.188783
 H          1.241294   -3.545317   -0.606300
 H          2.773059   -3.722146    0.297539
 C        -10.436235   -2.125907   -0.043419
 C        -11.515026   -1.247809   -0.073826
 H        -10.690054   -3.179275   -0.070119
 C        -11.422755    0.227195   -0.044979
 C        -12.925267   -1.611074   -0.138581
 O        -10.401929    0.911612    0.009784
 C        -12.804548    0.745833   -0.094384
 C        -13.710656   -0.354453   -0.150581
 C        -13.484843   -2.890362   -0.183815
 C        -13.215854    2.051360   -0.090609
 C        -15.067715   -0.103474   -0.203969
 C        -14.888152   -3.131633   -0.244361
 C        -12.740838   -4.105641   -0.175575
 C        -14.607769    2.337636   -0.145108
 H        -12.488475    2.857203   -0.046819
 C        -15.537911    1.241430   -0.202332
 H        -15.802887   -0.895943   -0.247913
 N        -16.026196   -3.384967   -0.294157
 N        -12.183305   -5.131317   -0.171718
 C        -15.098148    3.668182   -0.144823
 C        -16.929147    1.522068   -0.257242
 H        -14.414947    4.510187   -0.102318
 C        -16.448904    3.896487   -0.198982
 H        -17.654967    0.716516   -0.301119
 C        -17.364932    2.821484   -0.255223
 C         10.436245    2.125914   -0.043414
 C         11.515030    1.247808   -0.073823
 H         10.690071    3.179281   -0.070115
 C         11.422750   -0.227194   -0.044956
 C         12.925271    1.611067   -0.138570
 O         10.401917   -0.911605    0.009749
 C         12.804541   -0.745839   -0.094376
 C         13.710655    0.354443   -0.150561
 C         13.484845    2.890352   -0.183832
 C         13.215841   -2.051368   -0.090615
 C         15.067712    0.103459   -0.203947
 C         14.888155    3.131627   -0.244343
 C         12.740834    4.105628   -0.175673
 C         14.607755   -2.337650   -0.145112
 H         12.488457   -2.857208   -0.046835
 C         15.537902   -1.241448   -0.202321
 H         15.802889    0.895925   -0.247883
 N         16.026207    3.384930   -0.294105
 N         12.183246    5.131274   -0.171880
 C         15.098127   -3.668198   -0.144838
 C         16.929137   -1.522091   -0.257230
 H         14.414922   -4.510201   -0.102344
 C         16.448882   -3.896509   -0.198997
 H         17.654961   -0.716543   -0.301098
 C         17.364916   -2.821510   -0.255224
 F         18.674278   -3.114818   -0.306627
 F        -18.674295    3.114787   -0.306625
 F        -16.943174    5.145101   -0.200425
 F         16.943146   -5.145125   -0.200452
