        84
S0: Total Energy = -4240.91334025
 C          3.297729   -1.527332    0.119688
 C          2.688873   -0.267343    0.155853
 C          1.292651   -0.324179    0.116558
 C          0.805557   -1.631195    0.048272
 C         -0.620726   -1.599659    0.012918
 C         -1.044847   -0.268814    0.060283
 C         -2.436825   -0.145482    0.029981
 C         -3.096115   -1.378959   -0.041742
 S          2.064214   -2.809266    0.037242
 S         -1.928283   -2.721933   -0.073377
 C          0.146168    0.685201    0.133678
 H          3.262776    0.651226    0.214531
 H         -2.973629    0.796862    0.058242
 C          8.595297   -1.206683    0.101799
 C          9.320353   -0.029780    0.034017
 C          8.748039    1.329516   -0.061751
 O          7.562917    1.647954   -0.083532
 C          9.888979    2.269580   -0.131336
 C          9.840781    3.653656   -0.234884
 C         11.051961    4.327435   -0.286718
 C         12.262513    3.623662   -0.235135
 C         12.308814    2.238953   -0.131101
 C         11.093195    1.546623   -0.078077
 C         10.776960    0.097737    0.031295
 C         11.732090   -0.904057    0.117047
 C         13.137917   -0.654243    0.103756
 N         14.293403   -0.501953    0.096881
 C         11.437955   -2.296628    0.231608
 N         11.253636   -3.443789    0.326815
 H          9.179120   -2.118902    0.154909
 H          8.899619    4.191406   -0.274607
 H         13.278844    1.762543   -0.096863
 C         -8.399742   -1.066566   -0.116917
 C         -9.136098    0.105174   -0.056225
 C         -8.576270    1.467775    0.042603
 O         -7.392768    1.793220    0.078371
 C         -9.724451    2.400069    0.093497
 C         -9.688800    3.784760    0.191155
 C        -10.906214    4.449058    0.223654
 C        -12.110044    3.735430    0.159131
 C        -12.143748    2.349623    0.061126
 C        -10.922233    1.667176    0.027708
 C        -10.592627    0.220130   -0.070140
 C        -11.538762   -0.790734   -0.158279
 C        -12.946566   -0.553001   -0.161691
 N        -14.103375   -0.410670   -0.168162
 C        -11.231064   -2.181416   -0.257182
 N        -11.033566   -3.327473   -0.339572
 H         -8.976932   -1.982079   -0.180817
 H         -8.752783    4.330606    0.240771
 H        -13.109354    1.865167    0.015934
 C          0.134565    1.508039    1.442027
 H          1.034304    2.129125    1.509628
 H         -0.737433    2.170500    1.467143
 C          0.199428    1.625358   -1.091828
 H          1.102383    2.244598   -1.057549
 H         -0.669317    2.292541   -1.098019
 H          0.205550    1.057529   -2.027251
 H          0.098087    0.856069    2.320157
 C         -4.504427   -1.599935   -0.081536
 C         -5.185177   -2.831988   -0.161681
 S         -5.635753   -0.264991   -0.026564
 C         -6.573572   -2.691872   -0.178783
 C         -7.017401   -1.359978   -0.111557
 H         -7.272522   -3.517220   -0.237115
 C          4.705054   -1.801287    0.126782
 C          5.391114   -3.031968    0.187774
 S          5.815440   -0.441067    0.050546
 C          6.774977   -2.840113    0.182249
 C          7.213806   -1.509460    0.113958
 H          7.481756   -3.662907    0.230915
 F         13.402435    4.325699   -0.289556
 F         11.093813    5.662041   -0.387242
 F        -10.959792    5.783782    0.317294
 F        -13.256435    4.428134    0.194624
 C          4.765582   -4.399357    0.260410
 H          4.099250   -4.499835    1.125139
 H          4.177826   -4.629072   -0.636496
 H          5.542276   -5.163963    0.349346
 O         -4.469129   -3.977531   -0.211771
 C         -5.190680   -5.210954   -0.287954
 H         -5.827917   -5.343788    0.593481
 H         -5.799890   -5.249565   -1.197849
 H         -4.434730   -5.995430   -0.317418
        84
T1: Total Energy = -4240.88204157
 C          3.291840   -1.588988    0.045103
 C          2.668597   -0.306731    0.056631
 C          1.295724   -0.362809    0.046436
 C          0.787624   -1.694265    0.025240
 C         -0.600744   -1.663316    0.011557
 C         -1.041539   -0.304191    0.025866
 C         -2.406774   -0.179662    0.014412
 C         -3.089116   -1.437998   -0.009899
 S          2.053518   -2.882916    0.022719
 S         -1.918881   -2.796136   -0.018783
 C          0.151909    0.649619    0.051988
 H          3.248542    0.609235    0.073209
 H         -2.947880    0.759951    0.022593
 C          8.564865   -1.207868    0.028756
 C          9.279646   -0.015819    0.012653
 C          8.691284    1.340739   -0.004190
 O          7.501792    1.644951    0.001029
 C          9.819645    2.297599   -0.030020
 C          9.755774    3.684113   -0.054545
 C         10.959725    4.373869   -0.077113
 C         12.176680    3.681455   -0.074442
 C         12.238398    2.292530   -0.049439
 C         11.031467    1.585075   -0.026985
 C         10.729140    0.128512    0.001911
 C         11.698174   -0.869200    0.016521
 C         13.099867   -0.603053    0.000664
 N         14.253929   -0.437090   -0.011500
 C         11.421895   -2.268636    0.050086
 N         11.254163   -3.422462    0.077717
 H          9.159161   -2.114311    0.033716
 H          8.808781    4.213052   -0.056470
 H         13.213681    1.825703   -0.048958
 C         -8.367465   -1.065087   -0.035436
 C         -9.095317    0.123248   -0.017154
 C         -8.521388    1.485817    0.012219
 O         -7.334281    1.800296    0.025354
 C         -9.658828    2.431903    0.023420
 C         -9.610572    3.818610    0.049824
 C        -10.822672    4.495531    0.054875
 C        -12.030826    3.789635    0.033647
 C        -12.076806    2.399359    0.007306
 C        -10.862502    1.705475    0.002272
 C        -10.542565    0.252164   -0.022510
 C        -11.502354   -0.758468   -0.045527
 C        -12.906119   -0.507399   -0.048132
 N        -14.062279   -0.353667   -0.051236
 C        -11.211639   -2.154412   -0.068496
 N        -11.031993   -3.307032   -0.087666
 H         -8.955630   -1.974763   -0.055180
 H         -8.669712    4.358181    0.065931
 H        -13.046749    1.921733   -0.007973
 C          0.162529    1.509345    1.336269
 H          1.065691    2.127741    1.370263
 H         -0.707009    2.174875    1.353736
 C          0.186659    1.552762   -1.201443
 H          1.091452    2.169849   -1.198263
 H         -0.681075    2.220823   -1.211347
 H          0.176539    0.958967   -2.120426
 H          0.137526    0.884285    2.234006
 C         -4.467570   -1.633473   -0.023494
 C         -5.182103   -2.870560   -0.049284
 S         -5.603578   -0.272827   -0.007070
 C         -6.558611   -2.715890   -0.054833
 C         -6.990970   -1.367468   -0.033640
 H         -7.269695   -3.531968   -0.073003
 C          4.676054   -1.842587    0.045013
 C          5.389121   -3.075348    0.048570
 S          5.786328   -0.460708    0.035724
 C          6.759930   -2.867626    0.045367
 C          7.189164   -1.520926    0.037012
 H          7.478540   -3.681071    0.048511
 F         13.309873    4.396782   -0.097067
 F         10.985586    5.713245   -0.102027
 F        -10.863075    5.835087    0.079936
 F        -13.172919    4.491544    0.039276
 C          4.777289   -4.449270    0.056780
 H          4.145848   -4.609877    0.938665
 H          4.156178   -4.624963   -0.829648
 H          5.562072   -5.210417    0.067481
 O         -4.478536   -4.014423   -0.065110
 C         -5.204273   -5.251663   -0.094607
 H         -5.831926   -5.349231    0.797186
 H         -5.820947   -5.312576   -0.997246
 H         -4.448802   -6.036476   -0.105907
        84
S1: Total Energy = -4240.86097769
 C          3.292676   -1.564004    0.086200
 C          2.679034   -0.290441    0.105219
 C          1.295285   -0.345863    0.079619
 C          0.795583   -1.666638    0.037810
 C         -0.608712   -1.633649    0.010139
 C         -1.040571   -0.286729    0.036992
 C         -2.419136   -0.162741    0.013892
 C         -3.088079   -1.408724   -0.032775
 S          2.056877   -2.852193    0.036681
 S         -1.922519   -2.760465   -0.048748
 C          0.151857    0.666286    0.087004
 H          3.257880    0.625641    0.140523
 H         -2.958314    0.778011    0.029075
 C          8.580964   -1.210174    0.073296
 C          9.297781   -0.024269    0.029229
 C          8.712254    1.334746   -0.030890
 O          7.523232    1.640361   -0.038401
 C          9.842595    2.286335   -0.083352
 C          9.783001    3.671079   -0.152594
 C         10.989371    4.357067   -0.193187
 C         12.203893    3.661021   -0.163414
 C         12.262323    2.273399   -0.093363
 C         11.053116    1.568532   -0.052816
 C         10.749436    0.118218    0.021116
 C         11.716079   -0.885108    0.074239
 C         13.117747   -0.625111    0.055702
 N         14.272952   -0.462392    0.042837
 C         11.434398   -2.280249    0.154577
 N         11.261449   -3.432456    0.221286
 H          9.171311   -2.118870    0.102590
 H          8.837448    4.202203   -0.174916
 H         13.236271    1.804154   -0.074213
 C         -8.385925   -1.065824   -0.081545
 C         -9.113591    0.111797   -0.038350
 C         -8.542416    1.476818    0.029778
 O         -7.355717    1.790661    0.054677
 C         -9.681812    2.416904    0.063662
 C         -9.636894    3.802461    0.129298
 C        -10.850452    4.476518    0.149488
 C        -12.057847    3.768272    0.103623
 C        -12.101868    2.380086    0.037647
 C        -10.885249    1.686819    0.017671
 C        -10.567990    0.240203   -0.046299
 C        -11.522677   -0.774141   -0.102375
 C        -12.927279   -0.529471   -0.101006
 N        -14.084182   -0.379085   -0.101996
 C        -11.224335   -2.166646   -0.166400
 N        -11.035669   -3.317123   -0.219858
 H         -8.968061   -1.978951   -0.125210
 H         -8.697172    4.343169    0.163835
 H        -13.070777    1.901216    0.005155
 C          0.150029    1.509041    1.382858
 H          1.052113    2.127835    1.433896
 H         -0.720105    2.173814    1.401195
 C          0.199638    1.585834   -1.154255
 H          1.105010    2.201793   -1.134602
 H         -0.666984    2.255381   -1.163857
 H          0.197610    1.003824   -2.080798
 H          0.117015    0.871752    2.271702
 C         -4.483580   -1.619057   -0.060124
 C         -5.178762   -2.851480   -0.114065
 S         -5.617090   -0.270307   -0.022706
 C         -6.566348   -2.703254   -0.125129
 C         -6.999636   -1.365982   -0.079185
 H         -7.271386   -3.524028   -0.163859
 C          4.687426   -1.829495    0.092591
 C          5.387274   -3.060172    0.121787
 S          5.799690   -0.455355    0.055823
 C          6.766511   -2.859856    0.118993
 C          7.198730   -1.520829    0.083949
 H          7.479427   -3.677916    0.142220
 F         13.339356    4.372257   -0.204933
 F         11.019020    5.695399   -0.261453
 F        -10.894531    5.814283    0.212636
 F        -13.200172    4.468508    0.125110
 C          4.770883   -4.431846    0.157298
 H          4.124859   -4.567653    1.032884
 H          4.163322   -4.630370   -0.733950
 H          5.552664   -5.194945    0.200337
 O         -4.472790   -3.996995   -0.148137
 C         -5.196339   -5.233580   -0.204946
 H         -5.828432   -5.351106    0.681533
 H         -5.808334   -5.280053   -1.111826
 H         -4.439731   -6.017226   -0.227404
