        83
S0: Total Energy = -3566.26605598
 C          5.141302   -0.872763    0.018524
 C          4.210736   -1.946355    0.101835
 C          2.895827   -1.457448    0.074023
 C          2.794774   -0.061238   -0.050783
 C          1.429564    0.280925   -0.060654
 C          0.705787    1.509523   -0.055433
 C         -0.706090    1.509497    0.061103
 S          4.330990    0.719500   -0.117933
 C         -5.141431   -0.873001   -0.017567
 C         -4.210754   -1.946772   -0.097314
 C         -2.895880   -1.457788   -0.068778
 C         -2.795016   -0.061319    0.053120
 C         -1.429832    0.280852    0.064211
 C         -0.712721   -0.949622   -0.017936
 C          0.712593   -0.949440    0.024981
 S         -4.331321    0.719561    0.116501
 C          6.533971   -1.114619    0.028752
 C          7.667015   -0.317004   -0.021837
 C          7.700864    1.161333   -0.060731
 O          6.753001    1.938384   -0.101267
 C          9.126526    1.557784   -0.034930
 C          9.645393    2.845898   -0.041928
 C         11.026078    2.972131   -0.008357
 C         11.845452    1.835938    0.030402
 C         11.324122    0.548228    0.034776
 C          9.931499    0.407057    0.001393
 C          9.051196   -0.791184   -0.010660
 C          9.520529   -2.096846   -0.032910
 C         10.907662   -2.435924   -0.018189
 N         12.025273   -2.766296   -0.005432
 C          8.692640   -3.257965   -0.088984
 N          8.069115   -4.242157   -0.137645
 H          6.737987   -2.174651    0.105184
 H          9.003653    3.719826   -0.071872
 H         12.016689   -0.281403    0.065853
 C         -6.534092   -1.114843   -0.029155
 C         -7.667141   -0.317075    0.018713
 C         -7.700853    1.161314    0.055633
 O         -6.752922    1.938299    0.095849
 C         -9.126443    1.557899    0.028268
 C         -9.645161    2.846081    0.033452
 C        -11.025807    2.972440   -0.001178
 C        -11.845287    1.836298   -0.039193
 C        -11.324106    0.548525   -0.041779
 C         -9.931521    0.407223   -0.007308
 C         -9.051373   -0.791115    0.006710
 C         -9.520937   -2.096686    0.029631
 C        -10.908116   -2.435539    0.013928
 N        -12.025764   -2.765753    0.000429
 C         -8.693341   -3.257930    0.087390
 N         -8.070158   -4.242273    0.137392
 H         -6.738056   -2.174993   -0.103963
 H         -9.003336    3.719966    0.062857
 H        -12.016756   -0.281056   -0.072365
 N         -1.615669   -2.009841   -0.128524
 N          1.615695   -2.009367    0.136906
 N          1.132009    2.783333   -0.098370
 N         -1.133581    2.783332    0.088994
 C          1.331606   -3.275269    0.824378
 H          2.061809   -3.424430    1.622800
 H          0.343788   -3.222174    1.281294
 H          1.368028   -4.128633    0.142122
 C         -1.330694   -3.277498   -0.812363
 H         -1.367363   -4.129054   -0.127860
 H         -2.060302   -3.428977   -1.610878
 H         -0.342599   -3.225338   -1.268780
 N         -0.001623    3.480572   -0.014516
 C          0.003650    4.933999    0.048092
 H          0.092279    5.266515    1.086647
 H          0.853559    5.297436   -0.529104
 H         -0.932035    5.296902   -0.376596
 C          4.588981   -3.401736    0.191735
 H          5.441473   -3.647928   -0.445915
 H          4.860605   -3.685310    1.216450
 H          3.758974   -4.038522   -0.120222
 C         -4.588830   -3.402366   -0.184424
 H         -5.442658   -3.647008    0.452023
 H         -4.858310   -3.688473   -1.209004
 H         -3.759462   -4.038360    0.130849
 F         13.172718    2.016756    0.064083
 F         11.607737    4.178081   -0.011310
 F        -11.607327    4.178460    0.000060
 F        -13.172510    2.017231   -0.073926
        83
T1: Total Energy = -3566.22063238
 C          5.132272   -0.880961    0.023013
 C          4.193348   -1.970184    0.093141
 C          2.889001   -1.490831    0.069441
 C          2.776837   -0.077140   -0.040140
 C          1.435584    0.260476   -0.036923
 C          0.705263    1.491821   -0.040024
 C         -0.705403    1.491760    0.046970
 S          4.323227    0.713201   -0.099323
 C         -5.132357   -0.880981   -0.022941
 C         -4.193373   -1.970318   -0.090429
 C         -2.889047   -1.490943   -0.065880
 C         -2.776989   -0.077131    0.042009
 C         -1.435718    0.260393    0.040527
 C         -0.697222   -0.989077   -0.031646
 C          0.697149   -0.988952    0.037486
 S         -4.323427    0.713348    0.097973
 C          6.518531   -1.125013    0.036633
 C          7.656350   -0.314425   -0.016933
 C          7.680986    1.168462   -0.049231
 O          6.724688    1.935375   -0.082926
 C          9.102092    1.576126   -0.026014
 C          9.613729    2.866239   -0.030175
 C         10.995051    3.000156   -0.000840
 C         11.817820    1.868127    0.030252
 C         11.302274    0.575918    0.031457
 C          9.911707    0.427632    0.003138
 C          9.034563   -0.773952   -0.012015
 C          9.510897   -2.085336   -0.041092
 C         10.897785   -2.415711   -0.013789
 N         12.018346   -2.738483    0.009763
 C          8.693709   -3.250250   -0.122432
 N          8.084814   -4.243022   -0.195621
 H          6.727094   -2.183543    0.114165
 H          8.967883    3.737336   -0.054995
 H         11.999366   -0.250163    0.055998
 C         -6.518606   -1.125040   -0.037431
 C         -7.656456   -0.314360    0.014003
 C         -7.681104    1.168579    0.043750
 O         -6.724822    1.935550    0.076574
 C         -9.102195    1.576207    0.019001
 C         -9.613825    2.866328    0.020720
 C        -10.995132    3.000203   -0.009497
 C        -11.817894    1.868128   -0.039027
 C        -11.302356    0.575916   -0.037804
 C         -9.911801    0.427669   -0.008624
 C         -9.034668   -0.773890    0.008998
 C         -9.511015   -2.085228    0.039882
 C        -10.897880   -2.415657    0.012114
 N        -12.018425   -2.738465   -0.011719
 C         -8.693874   -3.249999    0.123713
 N         -8.085003   -4.242631    0.198959
 H         -6.727112   -2.183686   -0.113524
 H         -8.967985    3.737462    0.044392
 H        -11.999443   -0.250200   -0.061250
 N         -1.613964   -2.047206   -0.129675
 N          1.613988   -2.046944    0.135852
 N          1.132860    2.762092   -0.074344
 N         -1.133956    2.762036    0.067070
 C          1.338222   -3.311010    0.830628
 H          2.074201   -3.454928    1.625073
 H          0.352466   -3.257921    1.292492
 H          1.372162   -4.166471    0.150975
 C         -1.337404   -3.312252   -0.822355
 H         -1.371520   -4.166714   -0.141451
 H         -2.072887   -3.457535   -1.617002
 H         -0.351420   -3.259596   -1.283776
 N         -0.001197    3.462896   -0.013320
 C          0.002760    4.916866    0.049460
 H          0.070883    5.248534    1.089663
 H          0.863825    5.279674   -0.511217
 H         -0.924406    5.279031   -0.393924
 C          4.608829   -3.416068    0.148636
 H          5.351433   -3.650469   -0.620414
 H          5.057389   -3.676502    1.115278
 H          3.756625   -4.077776   -0.013230
 C         -4.608783   -3.416291   -0.144101
 H         -5.352430   -3.649431    0.624320
 H         -5.056026   -3.678327   -1.110921
 H         -3.756794   -4.077721    0.020028
 F         13.144952    2.052651    0.059419
 F         11.569980    4.210612   -0.000984
 F        -11.570053    4.210662   -0.011661
 F        -13.145012    2.052609   -0.069085
        83
S1: Total Energy = -3566.20128427
 C          5.133272   -0.879264    0.011706
 C          4.202122   -1.961892    0.089081
 C          2.890409   -1.478131    0.065296
 C          2.782878   -0.072200   -0.051671
 C          1.433376    0.267026   -0.047798
 C          0.705270    1.496315   -0.046186
 C         -0.705418    1.496252    0.055862
 S          4.326818    0.714041   -0.116559
 C         -5.133340   -0.879312   -0.009350
 C         -4.202096   -1.962096   -0.083215
 C         -2.890405   -1.478310   -0.058258
 C         -2.783033   -0.072205    0.056533
 C         -1.433516    0.266932    0.054544
 C         -0.701784   -0.978554   -0.023996
 C          0.701744   -0.978398    0.033528
 S         -4.327052    0.714196    0.117531
 C          6.528431   -1.123070    0.020927
 C          7.660185   -0.317351   -0.032655
 C          7.685430    1.166180   -0.057687
 O          6.729000    1.933056   -0.095290
 C          9.105794    1.571345   -0.019876
 C          9.618122    2.860845   -0.010295
 C         10.999554    2.994138    0.031008
 C         11.821979    1.860797    0.059612
 C         11.307247    0.569032    0.046395
 C          9.915283    0.419717    0.006328
 C          9.044526   -0.778720   -0.026854
 C          9.517287   -2.092200   -0.072801
 C         10.902204   -2.427138   -0.037387
 N         12.022558   -2.752049   -0.007536
 C          8.695952   -3.250395   -0.185274
 N          8.077930   -4.235957   -0.285292
 H          6.735554   -2.182148    0.097325
 H          8.972677    3.732311   -0.033770
 H         12.003556   -0.257782    0.069709
 C         -6.528495   -1.123089   -0.020856
 C         -7.660334   -0.317284    0.029548
 C         -7.685584    1.166273    0.052977
 O         -6.729198    1.933166    0.091368
 C         -9.105863    1.571446    0.012284
 C         -9.618132    2.860953    0.000631
 C        -10.999488    2.994251   -0.043131
 C        -11.821898    1.860909   -0.072090
 C        -11.307230    0.569142   -0.056820
 C         -9.915340    0.419818   -0.014225
 C         -9.044681   -0.778615    0.021577
 C         -9.517589   -2.092040    0.067667
 C        -10.902449   -2.426951    0.029853
 N        -12.022760   -2.751835   -0.001847
 C         -8.696540   -3.250201    0.182536
 N         -8.078795   -4.235754    0.284344
 H         -6.735483   -2.182266   -0.096246
 H         -8.972700    3.732421    0.024403
 H        -12.003528   -0.257670   -0.080554
 N         -1.614710   -2.034755   -0.125814
 N          1.614793   -2.034397    0.135964
 N          1.132149    2.767878   -0.085196
 N         -1.133431    2.767820    0.080349
 C          1.339731   -3.303042    0.822978
 H          2.079776   -3.452883    1.612177
 H          0.356913   -3.251199    1.290987
 H          1.369237   -4.153590    0.137217
 C         -1.338758   -3.304642   -0.810172
 H         -1.368502   -4.153900   -0.122821
 H         -2.078228   -3.456172   -1.599578
 H         -0.355665   -3.253419   -1.277663
 N         -0.001391    3.467680   -0.012037
 C          0.003117    4.921877    0.049283
 H          0.082094    5.253930    1.088554
 H          0.858360    5.284082   -0.520559
 H         -0.928752    5.283432   -0.384567
 C          4.603873   -3.411498    0.159221
 H          5.392839   -3.649417   -0.559972
 H          4.984069   -3.680969    1.152510
 H          3.758114   -4.064481   -0.062346
 C         -4.603731   -3.411841   -0.151105
 H         -5.394125   -3.648217    0.567022
 H         -4.981961   -3.683434   -1.144568
 H         -3.758413   -4.064347    0.073557
 F         13.148629    2.045918    0.100794
 F         11.575092    4.204236    0.044886
 F        -11.574964    4.204354   -0.059065
 F        -13.148471    2.046032   -0.115676
