       149
S0: Total Energy = -5034.76362470
 O         10.387206   -2.492305   -2.043436
 O         10.195066   -7.026390   -1.405731
 C          9.702415   -3.472710   -1.782732
 C          8.247073   -3.383834   -1.517002
 C          7.562365   -2.171244   -1.545697
 H          8.123350   -1.270070   -1.770696
 C          6.168615   -2.086621   -1.291012
 H          5.673412   -1.121288   -1.321384
 C          5.468345   -3.247802   -1.006447
 C          5.362216   -5.595347   -0.676882
 C          6.173700   -4.475696   -0.979924
 C          7.541375   -4.573076   -1.226078
 C          8.132747   -5.855122   -1.167405
 C          9.585966   -5.964850   -1.430111
 C          5.950026   -6.848042   -0.619072
 H          5.368198   -7.734652   -0.388389
 C          7.343093   -6.962394   -0.868514
 H          7.818253   -7.937140   -0.827677
 N         10.267156   -4.765707   -1.719797
 C         11.707096   -4.902212   -1.977533
 H         12.201258   -5.329707   -1.102031
 H         11.868986   -5.568790   -2.827674
 H         12.102974   -3.912561   -2.190526
 O         -8.928554   -5.665485    3.024200
 O         -8.781066   -1.127222    2.404178
 C         -8.267509   -4.685177    2.708251
 C         -6.842979   -4.776147    2.308075
 C         -6.162296   -5.990488    2.264759
 H         -6.701978   -6.892425    2.534242
 C         -4.797844   -6.076370    1.881863
 H         -4.302778   -7.041905    1.861058
 C         -4.125673   -4.914530    1.540586
 C         -4.041854   -2.564511    1.217977
 C         -4.825813   -3.685219    1.586995
 C         -6.163956   -3.586345    1.961236
 C         -6.753697   -2.302289    1.969756
 C         -8.176242   -2.190866    2.365247
 C         -4.628156   -1.309046    1.230207
 H         -4.067508   -0.421418    0.956065
 C         -5.991168   -1.194196    1.610018
 H         -6.464973   -0.218158    1.623957
 N         -8.831656   -3.390222    2.707049
 C        -10.242217   -3.252356    3.094214
 H        -10.325655   -2.584003    3.954132
 H        -10.813817   -2.826480    2.266251
 H        -10.617609   -4.241373    3.343913
 C          4.071844   -3.603219   -0.702617
 C          1.828343   -3.437256   -0.297621
 C          1.775398   -4.867693   -0.059935
 C          4.007357   -5.045385   -0.493961
 C          0.655373   -2.626469   -0.186100
 C          0.579861   -5.509973    0.329937
 C         -0.563896   -4.706521    0.518300
 C         -0.523182   -3.280322    0.277926
 C         -2.715074   -3.116202    0.902509
 C         -2.761911   -4.560938    1.108291
 N          2.903686   -5.653801   -0.173224
 N          3.025386   -2.834273   -0.602771
 N         -1.728686   -5.328189    0.918215
 N         -1.638434   -2.511441    0.489026
 C          0.533655   -6.981785    0.548663
 C          0.853189   -7.867676   -0.492059
 C          0.169268   -7.512724    1.795626
 C          0.803127   -9.246944   -0.293294
 H          1.134983   -7.471326   -1.462524
 C          0.131529   -8.892017    1.997925
 H         -0.077450   -6.839883    2.610660
 C          0.445049   -9.764310    0.953486
 H          1.045942   -9.917478   -1.113359
 H         -0.144566   -9.284812    2.972900
 H          0.410806  -10.839157    1.109976
 C          0.669213   -1.199790   -0.526085
 C          1.558873   -0.541022   -1.367392
 S         -0.490609   -0.032014    0.107320
 C          1.362177    0.851992   -1.449175
 H          2.339334   -1.057620   -1.903949
 C          0.301427    1.303673   -0.691677
 H          1.976844    1.507845   -2.053702
 C         -0.143395    2.693895   -0.519078
 C          0.787201    3.699668   -0.150174
 C         -1.493339    3.078335   -0.716207
 C          0.370093    5.079095   -0.007419
 N          2.092634    3.327121    0.083571
 C         -1.913635    4.449570   -0.519403
 N         -2.388841    2.115148   -1.124191
 C         -0.982006    5.454462   -0.175250
 N          1.283057    6.071105    0.286385
 C          2.921086    4.284593    0.386819
 N         -3.238052    4.812623   -0.653273
 C         -3.623825    2.499328   -1.275224
 C         -1.411494    6.868304    0.005073
 C          2.512323    5.686362    0.470104
 C          4.360959    4.212074    0.688228
 C         -4.060301    3.870725   -1.013571
 C         -4.799676    1.720011   -1.697910
 C         -1.197088    7.530499    1.223947
 C         -2.039100    7.565979   -1.038578
 C          3.702595    6.488879    0.801874
 C          5.314589    3.211588    0.780703
 C          4.757104    5.551626    0.919085
 C         -5.513321    3.938170   -1.248492
 C         -5.881548    2.632537   -1.653443
 C         -5.046984    0.413672   -2.088170
 C         -1.606092    8.852299    1.396813
 H         -0.715559    7.002499    2.040873
 C         -2.435767    8.892144   -0.869945
 H         -2.208407    7.067767   -1.987848
 C          3.977714    7.830269    1.010248
 C          6.650602    3.566654    1.102978
 H          5.057639    2.170235    0.615028
 C          6.064388    5.914252    1.235844
 C         -6.494544    4.912764   -1.171634
 C         -7.188580    2.278506   -1.980899
 H         -4.249443   -0.320345   -2.141326
 C         -6.374581    0.039572   -2.424958
 C         -2.223928    9.538988    0.349437
 H         -1.439921    9.346095    2.350512
 H         -2.912532    9.419334   -1.691995
 H          3.201412    8.584573    0.931681
 C          5.306060    8.214598    1.332103
 C          7.030973    4.887539    1.327916
 H          7.408532    2.794033    1.180507
 C          6.336562    7.284901    1.445692
 C         -7.831502    4.565520   -1.500089
 H         -6.259826    5.927447   -0.866433
 C         -8.183470    3.278373   -1.897979
 C         -7.432833    0.943533   -2.375238
 H         -6.583312   -0.979754   -2.732754
 H         -2.538010   10.570768    0.482518
 H          5.537236    9.261943    1.497213
 C          8.425808    5.258548    1.664755
 C          7.724505    7.675853    1.782827
 H         -8.611646    5.317637   -1.443061
 C         -9.574845    2.907311   -2.243787
 C         -8.819421    0.552510   -2.724837
 O          9.323191    4.432246    1.764612
 N          8.670490    6.634709    1.867341
 O          8.066661    8.833788    1.984175
 O        -10.509421    3.696892   -2.207581
 N         -9.793971    1.569812   -2.629641
 O         -9.116318   -0.581422   -3.077138
 C         10.039764    7.049456    2.201366
 C        -11.183324    1.226920   -2.962113
 H         10.409901    7.746103    1.445698
 H         10.048229    7.552324    3.171109
 H         10.660282    6.157527    2.231463
 H        -11.525372    1.836994   -3.801438
 H        -11.212945    0.172422   -3.223893
 H        -11.827866    1.425188   -2.102912
       149
T1: Total Energy = -5034.72235801
 O         10.481374   -3.554479   -1.258688
 O          9.653523   -8.059611   -1.395300
 C          9.656050   -4.456942   -1.199545
 C          8.210553   -4.207814   -0.996890
 C          7.691266   -2.923133   -0.855811
 H          8.378390   -2.084224   -0.896847
 C          6.304919   -2.685746   -0.661395
 H          5.947005   -1.666587   -0.553628
 C          5.437696   -3.767009   -0.611750
 C          5.006949   -6.093881   -0.684716
 C          5.980268   -5.069686   -0.756102
 C          7.334672   -5.317235   -0.945543
 C          7.748658   -6.663283   -1.072244
 C          9.190815   -6.932640   -1.273945
 C          5.419221   -7.409713   -0.808274
 H          4.711662   -8.231265   -0.758347
 C          6.801089   -7.680195   -1.003164
 H          7.138844   -8.706802   -1.101395
 N         10.042002   -5.810777   -1.323859
 C         11.466813   -6.105511   -1.526095
 H         11.833984   -6.735858   -0.712884
 H         11.604670   -6.640196   -2.468788
 H         12.003067   -5.160197   -1.544585
 O         -9.269254   -4.879674    2.895491
 O         -8.479068   -0.376968    3.212991
 C         -8.476466   -3.956521    2.763200
 C         -7.081850   -4.159579    2.303013
 C         -6.580396   -5.419823    1.990262
 H         -7.240464   -6.275523    2.087474
 C         -5.241154   -5.611268    1.554040
 H         -4.888383   -6.611353    1.322715
 C         -4.412953   -4.508265    1.434585
 C         -3.993175   -2.183689    1.594101
 C         -4.935340   -3.232851    1.752720
 C         -6.240520   -3.029242    2.183958
 C         -6.641223   -1.705193    2.479153
 C         -8.030411   -1.482391    2.936187
 C         -4.394515   -0.889014    1.890288
 H         -3.714347   -0.049247    1.789740
 C         -5.725683   -0.666247    2.332122
 H         -6.051072    0.342321    2.565873
 N         -8.849782   -2.624221    3.046827
 C        -10.224080   -2.375548    3.501940
 H        -10.208691   -1.906789    4.488599
 H        -10.729030   -1.702273    2.805367
 H        -10.739065   -3.331811    3.544606
 C          3.994688   -3.975493   -0.438760
 C          1.768784   -3.547539   -0.124283
 C          1.509959   -4.971652   -0.144727
 C          3.729202   -5.384476   -0.479274
 C          0.667869   -2.602819    0.059284
 C          0.201505   -5.499562    0.077346
 C         -0.846838   -4.596155    0.414113
 C         -0.612115   -3.172426    0.444399
 C         -2.767928   -2.844103    1.132477
 C         -3.011366   -4.256029    1.047093
 N          2.519938   -5.874577   -0.329351
 N          3.032664   -3.084365   -0.261391
 N         -2.081556   -5.114129    0.688020
 N         -1.591336   -2.321958    0.816632
 C         -0.045309   -6.957103   -0.007542
 C          0.322404   -7.674058   -1.161311
 C         -0.651753   -7.658264    1.050445
 C          0.078248   -9.041843   -1.259163
 H          0.788012   -7.149210   -1.988580
 C         -0.874077   -9.030893    0.959928
 H         -0.934762   -7.124814    1.950694
 C         -0.516388   -9.727303   -0.196818
 H          0.355969   -9.573854   -2.165055
 H         -1.330125   -9.556898    1.794297
 H         -0.698649  -10.796085   -0.269737
 C          0.810202   -1.201584   -0.143223
 C          1.967891   -0.503625   -0.602786
 S         -0.527113   -0.032421    0.022903
 C          1.809210    0.855950   -0.735965
 H          2.884673   -1.024686   -0.821975
 C          0.511516    1.328362   -0.427162
 H          2.596481    1.511068   -1.077009
 C          0.081476    2.700185   -0.425468
 C          1.013223    3.771122   -0.174817
 C         -1.283685    3.070027   -0.679543
 C          0.601174    5.153387   -0.287564
 N          2.284307    3.456924    0.212493
 C         -1.685105    4.456010   -0.744091
 N         -2.187406    2.072313   -0.895869
 C         -0.744123    5.502313   -0.569592
 N          1.504564    6.178341   -0.128340
 C          3.114493    4.454074    0.397127
 N         -2.997137    4.804104   -0.963375
 C         -3.424921    2.429184   -1.138828
 C         -1.161008    6.924492   -0.667379
 C          2.721555    5.837004    0.196126
 C          4.526562    4.431041    0.803392
 C         -3.835609    3.822404   -1.155736
 C         -4.602482    1.598491   -1.427310
 C         -0.936401    7.814498    0.396144
 C         -1.791597    7.407730   -1.826151
 C          3.897228    6.689863    0.449845
 C          5.459293    3.463687    1.144216
 C          4.928917    5.790009    0.808062
 C         -5.282946    3.870358   -1.430838
 C         -5.669180    2.518039   -1.586248
 C         -4.867396    0.245706   -1.574449
 C         -1.337843    9.146302    0.305981
 H         -0.455975    7.455633    1.300292
 C         -2.176374    8.743971   -1.922243
 H         -1.968985    6.733830   -2.657897
 C          4.176361    8.045964    0.424000
 C          6.776494    3.869795    1.482901
 H          5.200665    2.409712    1.160035
 C          6.217047    6.202034    1.137351
 C         -6.244589    4.857366   -1.567822
 C         -6.973713    2.128809   -1.876699
 H         -4.084913   -0.498216   -1.467197
 C         -6.193577   -0.165021   -1.870326
 C         -1.955067    9.617301   -0.854985
 H         -1.166213    9.817026    1.143554
 H         -2.652202    9.102107   -2.831185
 H          3.417424    8.774244    0.156579
 C          5.487097    8.481600    0.755307
 C          7.161546    5.208579    1.482798
 H          7.515646    3.122826    1.753395
 C          6.494723    7.587441    1.106517
 C         -7.581209    4.475201   -1.859002
 H         -5.995667    5.907995   -1.457859
 C         -7.949668    3.141666   -2.013656
 C         -7.235549    0.747159   -2.019738
 H         -6.414407   -1.220964   -1.986606
 H         -2.261719   10.657273   -0.927363
 H          5.721600    9.540956    0.738160
 C          8.536456    5.633197    1.836241
 C          7.864138    8.031451    1.455007
 H         -8.346443    5.236737   -1.968344
 C         -9.339405    2.733054   -2.323039
 C         -8.620314    0.318487   -2.327869
 O          9.413866    4.838644    2.147641
 N          8.787496    7.022786    1.794288
 O          8.209017    9.205938    1.458172
 O        -10.258245    3.529598   -2.462266
 N         -9.575741    1.350551   -2.457532
 O         -8.932465   -0.857080   -2.465392
 C         10.138047    7.489802    2.135467
 C        -10.962283    0.972269   -2.762172
 H         10.565061    8.035346    1.290875
 H         10.091387    8.162115    2.995323
 H         10.743237    6.617577    2.368756
 H        -11.272734    1.430638   -3.703968
 H        -11.003528   -0.111348   -2.836257
 H        -11.624835    1.325565   -1.968783
       149
S1: Total Energy = -5034.70558147
 O          9.417656   -4.553755   -3.419997
 O          8.588200   -8.902983   -2.236038
 C          8.642607   -5.360811   -2.922484
 C          7.311901   -4.976175   -2.400952
 C          6.850243   -3.661447   -2.441864
 H          7.496568   -2.904215   -2.873560
 C          5.575311   -3.292803   -1.941591
 H          5.256083   -2.256895   -1.997248
 C          4.759288   -4.272727   -1.393196
 C          4.327892   -6.521615   -0.781279
 C          5.239866   -5.607251   -1.358082
 C          6.487940   -5.982116   -1.844901
 C          6.850046   -7.345296   -1.752057
 C          8.178103   -7.749810   -2.268117
 C          4.688710   -7.855902   -0.694840
 H          4.022544   -8.594771   -0.260912
 C          5.960477   -8.254642   -1.186436
 H          6.258534   -9.296199   -1.124629
 N          8.980161   -6.729342   -2.815331
 C         10.292342   -7.156877   -3.318617
 H         10.870000   -7.608883   -2.509056
 H         10.162345   -7.899935   -4.108874
 H         10.803252   -6.278573   -3.704667
 O         -9.423988   -3.880269    3.945270
 O         -8.483486    0.552149    3.253750
 C         -8.611241   -3.037802    3.586027
 C         -7.245716   -3.389922    3.127757
 C         -6.799621   -4.708418    3.076483
 H         -7.482114   -5.494808    3.381423
 C         -5.489854   -5.042497    2.641559
 H         -5.178074   -6.081834    2.617097
 C         -4.634526   -4.023497    2.255925
 C         -4.133104   -1.734990    1.892480
 C         -5.098488   -2.689555    2.309539
 C         -6.377583   -2.345692    2.735675
 C         -6.724177   -0.974647    2.751644
 C         -8.080966   -0.603905    3.202718
 C         -4.483533   -0.390128    1.915351
 H         -3.783770    0.380772    1.608830
 C         -5.783480   -0.027247    2.347249
 H         -6.068653    1.019654    2.368886
 N         -8.930061   -1.663233    3.587938
 C        -10.273443   -1.267752    4.031137
 H        -10.198807   -0.607647    4.898564
 H        -10.784179   -0.730017    3.229072
 H        -10.818903   -2.171918    4.289030
 C          3.428173   -4.331025   -0.781709
 C          1.394003   -3.697928    0.048277
 C          1.095138   -5.085410    0.340829
 C          3.154598   -5.705077   -0.417666
 C          0.439214   -2.661098    0.356546
 C         -0.161817   -5.476870    0.872917
 C         -1.134873   -4.473334    1.105668
 C         -0.844193   -3.081276    0.851286
 C         -2.950501   -2.519452    1.540388
 C         -3.245823   -3.920565    1.767566
 N          2.024238   -6.073578    0.125029
 N          2.572686   -3.359925   -0.548006
 N         -2.372443   -4.869228    1.555786
 N         -1.778151   -2.123106    1.089013
 C         -0.455968   -6.899804    1.166142
 C         -0.291946   -7.890696    0.181560
 C         -0.907996   -7.288313    2.440264
 C         -0.581023   -9.224730    0.460114
 H          0.047380   -7.607872   -0.808727
 C         -1.174191   -8.626012    2.723658
 H         -1.034208   -6.537691    3.212959
 C         -1.017330   -9.598929    1.733434
 H         -0.462951   -9.973681   -0.318237
 H         -1.507820   -8.908322    3.718473
 H         -1.233957  -10.641015    1.952246
 C          0.748635   -1.261921    0.184290
 C          2.034365   -0.678515    0.088072
 S         -0.480256   -0.002023   -0.003552
 C          2.030023    0.690130   -0.098714
 H          2.936590   -1.263849    0.156364
 C          0.740618    1.265572   -0.192363
 H          2.928534    1.280973   -0.168499
 C          0.421631    2.663128   -0.361239
 C          1.369340    3.705521   -0.050836
 C         -0.865303    3.075530   -0.853525
 C          1.059876    5.092058   -0.336836
 N          2.551976    3.373664    0.541506
 C         -1.166706    4.466533   -1.101020
 N         -1.791805    2.111385   -1.095448
 C         -0.201029    5.476295   -0.865145
 N          1.981811    6.086110   -0.118281
 C          3.400577    4.350008    0.777513
 N         -2.407978    4.855298   -1.547582
 C         -2.967752    2.500945   -1.544137
 C         -0.506483    6.898235   -1.151438
 C          3.116146    5.723598    0.420453
 C          4.733733    4.298687    1.385873
 C         -3.274179    3.901094   -1.763348
 C         -4.144154    1.709612   -1.899769
 C         -0.348607    7.885705   -0.162450
 C         -0.963745    7.289177   -2.422949
 C          4.284093    6.547032    0.785338
 C          5.558064    3.322287    1.927768
 C          5.204248    5.636796    1.355872
 C         -4.664233    3.996077   -2.249718
 C         -5.117580    2.658784   -2.310553
 C         -4.484625    0.362114   -1.930782
 C         -0.648530    9.218746   -0.434220
 H         -0.005410    7.600902    0.825939
 C         -1.240747    8.626091   -2.699606
 H         -1.085442    6.541274   -3.198992
 C          4.634940    7.884296    0.704331
 C          6.831502    3.697986    2.426884
 H          5.246579    2.283813    1.979288
 C          6.450614    6.018618    1.841579
 C         -5.527429    5.011046   -2.628702
 C         -6.394324    2.307499   -2.737833
 H         -3.778887   -0.405433   -1.629570
 C         -5.781712   -0.007938   -2.364095
 C         -1.089854    9.595528   -1.705047
 H         -0.535040    9.964909    0.347484
 H         -1.578255    8.910456   -3.692526
 H          3.962412    8.620260    0.275320
 C          5.904880    8.290137    1.194963
 C          7.283228    5.016208    2.391015
 H          7.484421    2.943549    2.853513
 C          6.802482    7.384872    1.754305
 C         -6.835020    4.669675   -3.064534
 H         -5.223215    6.052472   -2.598348
 C         -7.269876    3.347949   -3.122840
 C         -6.731273    0.933954   -2.762363
 H         -6.058369   -1.056877   -2.391998
 H         -1.314932   10.636915   -1.918589
 H          6.195031    9.334163    1.137318
 C          8.612379    5.408302    2.911355
 C          8.128669    7.796789    2.269250
 H         -7.524219    5.452286   -3.364368
 C         -8.629749    2.979851   -3.580385
 C         -8.084411    0.546507   -3.213966
 O          9.394272    4.604663    3.403570
 N          8.939734    6.779615    2.809441
 O          8.530090    8.953111    2.241987
 O         -9.463072    3.802812   -3.938538
 N         -8.941465    1.607087   -3.590761
 O         -8.459192   -0.618736   -3.265969
 C         10.249999    7.214466    3.311480
 C        -10.296852    1.269177   -4.044586
 H         10.820339    7.678388    2.503528
 H         10.116638    7.949622    4.108584
 H         10.770064    6.337498    3.688228
 H        -10.442659    1.617234   -5.069961
 H        -10.405801    0.188930   -3.992336
 H        -11.034297    1.758382   -3.404086
