        83
S0: Total Energy = -4039.52018906
 C          6.637412    0.347988   -0.116146
 C          6.470482    1.739104   -0.239948
 C          5.137015    2.137042   -0.223270
 C          4.236774    1.058837   -0.087437
 C          2.900163    1.507640   -0.087472
 C          2.789934    2.899506   -0.212265
 C          1.424259    3.228083   -0.146683
 C          0.700803    4.455385   -0.098771
 C         -0.700965    4.455633    0.095622
 S          5.057366   -0.471270    0.013917
 S          4.335285    3.709694   -0.349112
 C         -6.637693    0.348301    0.114222
 C         -6.470972    1.739903    0.232676
 C         -5.137452    2.137716    0.217423
 C         -4.236938    1.058924    0.088217
 C         -2.900319    1.507732    0.089212
 C         -2.790374    2.900123    0.208252
 C         -1.424596    3.228437    0.144072
 C         -0.714816    1.991856    0.023159
 C          0.714782    1.991941   -0.019286
 S         -5.057386   -0.471564   -0.008714
 S         -4.336007    3.710902    0.338141
 C          7.938634   -0.211410   -0.102227
 C          8.432967   -1.497925   -0.000072
 C          7.619263   -2.727555    0.117612
 O          6.394396   -2.811383    0.155683
 C          8.563359   -3.863933    0.179431
 C          8.267946   -5.215753    0.288265
 C          9.331989   -6.119937    0.327602
 C         10.650602   -5.654655    0.257689
 C         10.943177   -4.290711    0.148444
 C          9.882579   -3.378672    0.108743
 C          9.842235   -1.895617    0.000861
 C         10.964233   -1.084755   -0.074985
 C         12.302791   -1.583259   -0.066482
 N         13.414736   -1.932253   -0.064279
 C         10.928843    0.340101   -0.166649
 N         10.953956    1.503246   -0.241497
 H          8.681233    0.573258   -0.195215
 H          7.234627   -5.544881    0.339908
 H         11.976339   -3.975945    0.097025
 C         -7.938922   -0.211059    0.099411
 C         -8.433137   -1.497857    0.000315
 C         -7.619275   -2.727798   -0.112900
 O         -6.394307   -2.811873   -0.147031
 C         -8.563358   -3.864105   -0.176106
 C         -8.267839   -5.216075   -0.282772
 C         -9.331908   -6.120119   -0.324545
 C        -10.650650   -5.654550   -0.259128
 C        -10.943327   -4.290465   -0.151937
 C         -9.882702   -3.378566   -0.109778
 C         -9.842440   -1.895430   -0.002958
 C        -10.964516   -1.084489    0.070901
 C        -12.303091   -1.582906    0.060101
 N        -13.415056   -1.931818    0.055938
 C        -10.929208    0.340334    0.163100
 N        -10.954401    1.503449    0.238396
 H         -8.681664    0.574002    0.187817
 H         -7.234422   -5.545414   -0.330999
 H        -11.976591   -3.975477   -0.104054
 N         -1.641306    0.949118   -0.035657
 N          1.641436    0.949523    0.042512
 N          1.124796    5.729182   -0.166761
 N         -1.127050    5.729622    0.145159
 C          1.448296   -0.393534    0.589472
 H          2.310265   -0.645014    1.211508
 H          0.563679   -0.407572    1.226109
 H          1.350494   -1.147244   -0.196610
 C         -1.446915   -0.396777   -0.575044
 H         -1.348436   -1.145983    0.215261
 H         -2.308707   -0.652499   -1.195571
 H         -0.562354   -0.413642   -1.211726
 H        -11.470938   -6.365518   -0.291861
 H         -9.139519   -7.185658   -0.407507
 H          9.139676   -7.185370    0.412089
 H         11.470863   -6.365742    0.288444
 N         -0.002562    6.427165   -0.021862
 H         -7.319145    2.409785    0.321303
 H          7.318483    2.408558   -0.333309
 C          0.006381    7.880075    0.040393
 H          0.145232    8.213836    1.073183
 H          0.827482    8.243116   -0.577445
 H         -0.948305    8.244124   -0.338915
        83
T1: Total Energy = -4039.47530797
 C          6.624492    0.352172   -0.108636
 C          6.449314    1.755754   -0.224210
 C          5.121396    2.142153   -0.206536
 C          4.215336    1.058487   -0.078238
 C          2.891771    1.498405   -0.076471
 C          2.773598    2.912281   -0.190363
 C          1.429251    3.235764   -0.118404
 C          0.701105    4.465294   -0.081865
 C         -0.701334    4.465416    0.080715
 S          5.051815   -0.477981    0.013797
 S          4.321919    3.723083   -0.322348
 C         -6.624680    0.352232    0.107450
 C         -6.449731    1.756225    0.218128
 C         -5.121760    2.142517    0.202250
 C         -4.215409    1.058349    0.080478
 C         -2.891841    1.498321    0.079802
 C         -2.773990    2.912653    0.188159
 C         -1.429520    3.235899    0.117853
 C         -0.701117    1.982706    0.008770
 C          0.701175    1.982885   -0.003061
 S         -5.051720   -0.478453   -0.007626
 S         -4.322609    3.723943    0.313293
 C          7.923746   -0.202449   -0.098898
 C          8.419110   -1.499117   -0.003943
 C          7.600963   -2.729328    0.108219
 O          6.375095   -2.806960    0.142091
 C          8.539353   -3.869441    0.171491
 C          8.241410   -5.219860    0.278331
 C          9.304559   -6.127175    0.320909
 C         10.622168   -5.661966    0.256084
 C         10.917169   -4.296618    0.148441
 C          9.859064   -3.383431    0.105275
 C          9.817510   -1.899763   -0.002442
 C         10.946760   -1.085205   -0.080934
 C         12.281948   -1.586439   -0.073369
 N         13.393557   -1.939775   -0.071908
 C         10.916742    0.337390   -0.175260
 N         10.950048    1.501180   -0.252806
 H          8.667782    0.580593   -0.185459
 H          7.207357   -5.547625    0.326288
 H         11.950967   -3.983093    0.101271
 C         -7.923956   -0.202311    0.096099
 C         -8.419213   -1.499179    0.003487
 C         -7.600916   -2.729718   -0.103822
 O         -6.374950   -2.807623   -0.133280
 C         -8.539300   -3.869750   -0.168601
 C         -8.241258   -5.220348   -0.272874
 C         -9.304430   -6.127514   -0.317949
 C        -10.622160   -5.661990   -0.258023
 C        -10.917259   -4.296470   -0.152873
 C         -9.859132   -3.383427   -0.107265
 C         -9.817664   -1.899643   -0.001117
 C        -10.946996   -1.084882    0.073952
 C        -12.282235   -1.585930    0.063217
 N        -13.393888   -1.939100    0.059042
 C        -10.917022    0.337740    0.167906
 N        -10.950367    1.501554    0.245075
 H         -8.668135    0.581081    0.178138
 H         -7.207113   -5.548354   -0.317055
 H        -11.951148   -3.982697   -0.109509
 N         -1.638954    0.938027   -0.040899
 N          1.639195    0.938504    0.049380
 N          1.126983    5.736231   -0.141414
 N         -1.129161    5.736461    0.121412
 C          1.448922   -0.405065    0.599236
 H          2.314258   -0.655213    1.216911
 H          0.567179   -0.417615    1.239968
 H          1.347328   -1.157805   -0.186832
 C         -1.447329   -0.408474   -0.582941
 H         -1.345038   -1.156549    0.207495
 H         -2.312478   -0.663002   -1.199056
 H         -0.565647   -0.423972   -1.223733
 H        -11.442462   -6.373062   -0.293451
 H         -9.110305   -7.192841   -0.399247
 H          9.110506   -7.192375    0.404027
 H         11.442450   -6.373156    0.289552
 N         -0.002329    6.436284   -0.020874
 H         -7.296375    2.427605    0.302790
 H          7.295767    2.426750   -0.313667
 C          0.004678    7.890333    0.038411
 H          0.120544    8.224387    1.073641
 H          0.839263    8.251417   -0.561995
 H         -0.941625    8.252230   -0.362882
        83
S1: Total Energy = -4039.45885258
 C          6.626158    0.355188   -0.112226
 C          6.458995    1.749661   -0.229166
 C          5.123884    2.143281   -0.211307
 C          4.223329    1.064226   -0.081194
 C          2.891826    1.509456   -0.081012
 C          2.778301    2.915671   -0.199011
 C          1.427956    3.241218   -0.126221
 C          0.700955    4.469111   -0.086669
 C         -0.701280    4.469274    0.085097
 S          5.052839   -0.470661    0.012240
 S          4.327771    3.722865   -0.331327
 C         -6.626343    0.355171    0.111894
 C         -6.459451    1.750109    0.223493
 C         -5.124288    2.143630    0.207569
 C         -4.223393    1.064024    0.084632
 C         -2.891906    1.509344    0.085500
 C         -2.778757    2.916103    0.197211
 C         -1.428301    3.241405    0.125920
 C         -0.704042    1.991210    0.013325
 C          0.704079    1.991395   -0.006616
 S         -5.052694   -0.471253   -0.004450
 S         -4.328562    3.723810    0.322116
 C          7.932132   -0.207896   -0.100091
 C          8.420479   -1.498506   -0.003661
 C          7.596845   -2.727482    0.107259
 O          6.370759   -2.798938    0.140986
 C          8.531142   -3.869033    0.168455
 C          8.228074   -5.218487    0.273146
 C          9.287279   -6.130526    0.314115
 C         10.607504   -5.669810    0.249708
 C         10.908935   -4.306706    0.144509
 C          9.854378   -3.386274    0.103001
 C          9.823346   -1.907937   -0.000399
 C         10.954502   -1.094228   -0.073051
 C         12.288207   -1.598031   -0.065724
 N         13.398828   -1.955826   -0.064204
 C         10.926113    0.328214   -0.158598
 N         10.958161    1.493050   -0.228372
 H          8.676740    0.574956   -0.186793
 H          7.192603   -5.541897    0.320726
 H         11.944003   -3.997286    0.097689
 C         -7.932331   -0.207830    0.097724
 C         -8.420553   -1.498645    0.003449
 C         -7.596746   -2.727976   -0.102029
 O         -6.370536   -2.799779   -0.130123
 C         -8.531043   -3.869394   -0.165609
 C         -8.227858   -5.219025   -0.267629
 C         -9.287097   -6.130857   -0.312182
 C        -10.607472   -5.669761   -0.253868
 C        -10.909016   -4.306487   -0.151223
 C         -9.854425   -3.386263   -0.106108
 C         -9.823473   -1.907840   -0.003900
 C        -10.954709   -1.093908    0.064960
 C        -12.288476   -1.597472    0.053573
 N        -13.399154   -1.955061    0.048628
 C        -10.926336    0.328519    0.150768
 N        -10.958414    1.493347    0.220673
 H         -8.677105    0.575397    0.179429
 H         -7.192271   -5.542720   -0.310549
 H        -11.944201   -3.996773   -0.109144
 N         -1.639905    0.948132   -0.037923
 N          1.640155    0.948699    0.047988
 N          1.126113    5.741015   -0.149158
 N         -1.128501    5.741307    0.128203
 C          1.451510   -0.398596    0.589295
 H          2.319152   -0.652399    1.201969
 H          0.572495   -0.415204    1.233433
 H          1.347460   -1.145863   -0.201567
 C         -1.449900   -0.402395   -0.570516
 H         -1.344965   -1.144407    0.225180
 H         -2.317450   -0.661040   -1.181265
 H         -0.571062   -0.422372   -1.214844
 H        -11.424543   -6.384685   -0.288783
 H         -9.088889   -7.195539   -0.391703
 H          9.089157   -7.195084    0.395492
 H         11.424541   -6.384906    0.281772
 N         -0.002490    6.440418   -0.021395
 H         -7.306714    2.420811    0.308362
 H          7.306037    2.419950   -0.319324
 C          0.004812    7.894586    0.036888
 H          0.127293    8.229018    1.071214
 H          0.835565    8.255309   -0.568997
 H         -0.944110    8.256129   -0.358465
