        77
S0: Total Energy = -4681.02240292
 C          6.636329    0.396846   -0.119608
 C          6.469226    1.788650   -0.243576
 C          5.136316    2.186039   -0.226050
 C          4.236007    1.107087   -0.089506
 C          2.899810    1.555689   -0.088449
 C          2.789404    2.947937   -0.213078
 C          1.424132    3.276346   -0.146778
 C          0.700671    4.503729   -0.098340
 C         -0.700842    4.503923    0.096836
 S          5.056443   -0.422822    0.011891
 S          4.334312    3.758644   -0.351196
 C         -6.636596    0.397069    0.117586
 C         -6.469709    1.789309    0.236802
 C         -5.136746    2.186584    0.220849
 C         -4.236161    1.107107    0.090404
 C         -2.899957    1.555721    0.090485
 C         -2.789841    2.948439    0.210020
 C         -1.424469    3.276619    0.145254
 C         -0.714710    2.039760    0.023581
 C          0.714685    2.039863   -0.019215
 S         -5.056444   -0.423152   -0.007144
 S         -4.335038    3.759670    0.341577
 C          7.935883   -0.163109   -0.107689
 C          8.433719   -1.449504   -0.005043
 C          7.616893   -2.687178    0.121846
 O          6.392451   -2.762399    0.160367
 C          8.577751   -3.804439    0.189683
 C          8.514842   -5.161095    0.304611
 C         10.865295   -4.266114    0.167605
 C          9.909395   -3.283105    0.110777
 C          9.852861   -1.818021   -0.009360
 C         10.978555   -1.012960   -0.101010
 C         12.289477   -1.575811   -0.087690
 N         13.363728   -2.028101   -0.077758
 C         10.960647    0.408087   -0.212467
 N         10.983773    1.570284   -0.304007
 H          8.681620    0.619490   -0.202104
 H          7.647569   -5.802620    0.381193
 H         11.942103   -4.192097    0.132798
 C         -7.936164   -0.162826    0.104403
 C         -8.433877   -1.449478    0.004475
 C         -7.616883   -2.687571   -0.117140
 O         -6.392345   -2.763062   -0.151915
 C         -8.577726   -3.804825   -0.185333
 C         -8.514724   -5.161720   -0.297354
 C        -10.865404   -4.266091   -0.168694
 C         -9.909503   -3.283124   -0.111207
 C         -9.853073   -1.817809    0.006107
 C        -10.978875   -1.012437    0.093613
 C        -12.289842   -1.575130    0.078096
 N        -13.364132   -2.027282    0.066333
 C        -10.961039    0.408785    0.202820
 N        -10.984229    1.571130    0.292457
 H         -8.682053    0.620142    0.194438
 H         -7.647347   -5.803537   -0.370219
 H        -11.942293   -4.191822   -0.137070
 N         -1.641098    0.997132   -0.035331
 N          1.641240    0.997526    0.042175
 N          1.124651    5.777458   -0.166257
 N         -1.126937    5.777810    0.146911
 C          1.448370   -0.345703    0.589127
 H          2.310025   -0.596694    1.211775
 H          0.563402   -0.360028    1.225213
 H          1.351436   -1.099345   -0.197091
 C         -1.446973   -0.348700   -0.575290
 H         -1.349336   -1.098179    0.214821
 H         -2.308465   -0.603675   -1.196520
 H         -0.562077   -0.365561   -1.211451
 N         -0.002585    6.475413   -0.020531
 H         -7.317864    2.459022    0.326751
 H          7.317201    2.457974   -0.337997
 C          0.006340    7.928407    0.041803
 H          0.145781    8.261931    1.074564
 H          0.827080    8.291460   -0.576485
 H         -0.948593    8.292376   -0.336921
 S        -10.119229   -5.828743   -0.313588
 S         10.119276   -5.828360    0.317543
        77
T1: Total Energy = -4680.97840600
 C          6.624386    0.401104   -0.113463
 C          6.448913    1.804542   -0.229650
 C          5.120832    2.190325   -0.211270
 C          4.215470    1.106217   -0.081948
 C          2.891732    1.545751   -0.078864
 C          2.773228    2.959644   -0.192910
 C          1.428934    3.282648   -0.120110
 C          0.700932    4.512166   -0.082401
 C         -0.701114    4.512260    0.082119
 S          5.052587   -0.429744    0.010516
 S          4.321016    3.770944   -0.326518
 C         -6.624570    0.401164    0.111980
 C         -6.449314    1.804970    0.223838
 C         -5.121183    2.190659    0.207150
 C         -4.215548    1.106100    0.083698
 C         -2.891805    1.545679    0.081741
 C         -2.773600    2.959972    0.190928
 C         -1.429182    3.282753    0.119810
 C         -0.701223    2.029303    0.009365
 C          0.701278    2.029470   -0.004051
 S         -5.052505   -0.430161   -0.005356
 S         -4.321669    3.771717    0.318270
 C          7.922878   -0.154092   -0.104655
 C          8.421323   -1.450101   -0.008551
 C          7.602073   -2.688401    0.110659
 O          6.376309   -2.759886    0.145131
 C          8.558359   -3.808259    0.177339
 C          8.491929   -5.164695    0.287460
 C         10.844358   -4.270708    0.160309
 C          9.890831   -3.287378    0.104041
 C          9.831097   -1.821574   -0.011279
 C         10.962239   -1.011482   -0.099901
 C         12.271135   -1.574614   -0.087001
 N         13.346362   -2.026708   -0.077505
 C         10.948829    0.408045   -0.207603
 N         10.980244    1.571148   -0.296387
 H          8.669603    0.627231   -0.192621
 H          7.622466   -5.803856    0.359231
 H         11.921304   -4.198150    0.129120
 C         -7.923081   -0.153958    0.101667
 C         -8.421428   -1.450152    0.007712
 C         -7.602031   -2.688810   -0.106639
 O         -6.376180   -2.760553   -0.137237
 C         -8.558308   -3.808636   -0.174058
 C         -8.491799   -5.165266   -0.281729
 C        -10.844428   -4.270683   -0.162762
 C         -9.890897   -3.287419   -0.105418
 C         -9.831260   -1.821430    0.007557
 C        -10.962499   -1.011044    0.092070
 C        -12.271447   -1.573997    0.076681
 N        -13.346721   -2.025930    0.065116
 C        -10.949147    0.408632    0.197827
 N        -10.980610    1.571860    0.284933
 H         -8.669941    0.627684    0.185548
 H         -7.622246   -5.804690   -0.349979
 H        -11.921446   -4.197882   -0.134803
 N         -1.639459    0.985257   -0.040626
 N          1.639681    0.985695    0.048283
 N          1.126820    5.783045   -0.142169
 N         -1.128950    5.783227    0.123712
 C          1.450425   -0.359680    0.593893
 H          2.316862   -0.611600    1.209257
 H          0.569963   -0.374462    1.236257
 H          1.347726   -1.109790   -0.194534
 C         -1.448948   -0.362724   -0.579217
 H         -1.345575   -1.108624    0.213121
 H         -2.315226   -0.618602   -1.193141
 H         -0.568561   -0.380139   -1.221656
 N         -0.002309    6.483030   -0.019877
 H         -7.295655    2.476532    0.309955
 H          7.295076    2.475761   -0.320086
 C          0.004762    7.937116    0.039535
 H          0.122107    8.270934    1.074658
 H          0.838494    8.298233   -0.562022
 H         -0.942128    8.298993   -0.360366
 S        -10.095361   -5.837759   -0.300972
 S         10.095428   -5.837428    0.303257
        77
S1: Total Energy = -4680.96187120
 C          6.626426    0.404185   -0.114788
 C          6.458458    1.799532   -0.230812
 C          5.123777    2.192276   -0.212409
 C          4.223150    1.112565   -0.082772
 C          2.891913    1.557416   -0.081989
 C          2.778047    2.963885   -0.199162
 C          1.427875    3.289154   -0.126096
 C          0.700941    4.517106   -0.086112
 C         -0.701225    4.517238    0.085626
 S          5.053052   -0.422361    0.009587
 S          4.327109    3.771737   -0.331292
 C         -6.626681    0.404264    0.113878
 C         -6.458948    1.800020    0.225166
 C         -5.124212    2.192649    0.208669
 C         -4.223282    1.112437    0.085502
 C         -2.892052    1.557350    0.085817
 C         -2.778515    2.964292    0.197509
 C         -1.428222    3.289312    0.126117
 C         -0.704028    2.038915    0.013249
 C          0.704018    2.039083   -0.006988
 S         -5.053015   -0.422820   -0.003112
 S         -4.327879    3.772621    0.322843
 C          7.930237   -0.159106   -0.103997
 C          8.422180   -1.450583   -0.008858
 C          7.598893   -2.688211    0.105929
 O          6.372975   -2.755698    0.139705
 C          8.552064   -3.809610    0.168642
 C          8.480642   -5.166347    0.273148
 C         10.837326   -4.281066    0.151566
 C          9.887216   -3.292502    0.098491
 C          9.835767   -1.829175   -0.009825
 C         10.968197   -1.020535   -0.090704
 C         12.276041   -1.585737   -0.077498
 N         13.350698   -2.039816   -0.067727
 C         10.956922    0.399455   -0.188424
 N         10.989248    1.563479   -0.268500
 H          8.677838    0.621830   -0.190438
 H          7.608682   -5.802470    0.341603
 H         11.914520   -4.212289    0.121350
 C         -7.930499   -0.158958    0.101278
 C         -8.422278   -1.450639    0.008173
 C         -7.598755   -2.688565   -0.101510
 O         -6.372730   -2.756252   -0.130752
 C         -8.551855   -3.809934   -0.165870
 C         -8.480270   -5.166819   -0.268335
 C        -10.837230   -4.281064   -0.155882
 C         -9.887167   -3.292559   -0.100910
 C         -9.835897   -1.829100    0.005666
 C        -10.968475   -1.020274    0.082533
 C        -12.276333   -1.585363    0.066146
 N        -13.351003   -2.039346    0.053720
 C        -10.957338    0.399788    0.179228
 N        -10.989813    1.563871    0.258380
 H         -8.678266    0.622295    0.183265
 H         -7.608172   -5.803148   -0.333009
 H        -11.914511   -4.212092   -0.129433
 N         -1.640029    0.995968   -0.037963
 N          1.640197    0.996452    0.046968
 N          1.126152    5.788986   -0.148203
 N         -1.128458    5.789228    0.129131
 C          1.451752   -0.351158    0.587591
 H          2.319885   -0.605538    1.199316
 H          0.573347   -0.367988    1.232567
 H          1.346838   -1.097911   -0.203636
 C         -1.450289   -0.354542   -0.570724
 H         -1.344545   -1.096554    0.224858
 H         -2.318331   -0.613320   -1.180705
 H         -0.572048   -0.374377   -1.215877
 N         -0.002435    6.488367   -0.020216
 H         -7.305950    2.470986    0.310598
 H          7.305263    2.470119   -0.321042
 C          0.004879    7.942540    0.038474
 H          0.127079    8.276640    1.072937
 H          0.835817    8.303381   -0.567082
 H         -0.943924    8.304202   -0.357047
 S        -10.081646   -5.845607   -0.287036
 S         10.081979   -5.845333    0.287300
