        89
S0: Total Energy = -4515.07527503
 C          6.634973    0.741184   -0.153735
 C          6.481150    2.148594   -0.285394
 C          5.135731    2.519735   -0.256271
 C          4.234766    1.445718   -0.111473
 C          2.898926    1.893647   -0.103463
 C          2.787672    3.285496   -0.230149
 C          1.423024    3.613991   -0.156111
 C          0.699902    4.841531   -0.103480
 C         -0.700117    4.841736    0.101261
 S          5.052654   -0.079545   -0.007750
 S          4.330886    4.095589   -0.379506
 C         -6.635204    0.741346    0.152241
 C         -6.481623    2.149207    0.279175
 C         -5.136152    2.520248    0.251317
 C         -4.234894    1.445715    0.112275
 C         -2.899052    1.893678    0.105102
 C         -2.788114    3.286000    0.226723
 C         -1.423367    3.614272    0.154024
 C         -0.714716    2.377008    0.026960
 C          0.714726    2.377107   -0.023194
 S         -5.052600   -0.079921    0.012438
 S         -4.331629    4.096604    0.369909
 C          7.914193    0.147719   -0.147047
 C          8.387052   -1.151980   -0.034013
 C          7.562361   -2.365872    0.129194
 O          6.338189   -2.445519    0.182580
 C          8.496201   -3.510316    0.220325
 C          8.178118   -4.852153    0.383809
 C          9.233422   -5.750181    0.445984
 C         10.557216   -5.302654    0.346065
 C         10.873219   -3.959507    0.181748
 C          9.817292   -3.042881    0.117177
 C          9.788740   -1.564858   -0.049626
 C         10.922995   -0.778420   -0.194201
 C         12.250526   -1.304151   -0.197539
 N         13.352710   -1.683072   -0.207024
 C         10.912086    0.638946   -0.360512
 N         10.962815    1.795651   -0.499365
 H          8.683486    0.902423   -0.253977
 H          7.150551   -5.190879    0.460796
 F          9.013101   -7.061776    0.602915
 F         11.537679   -6.213533    0.413364
 H         11.917112   -3.686780    0.112127
 C         -7.914433    0.147909    0.145006
 C         -8.387159   -1.152048    0.034474
 C         -7.562304   -2.366270   -0.125405
 O         -6.338025   -2.446190   -0.175816
 C         -8.496155   -3.510616   -0.217695
 C         -8.177974   -4.852603   -0.379745
 C         -9.233315   -5.750454   -0.443826
 C        -10.557241   -5.302613   -0.347111
 C        -10.873343   -3.959326   -0.184123
 C         -9.817380   -3.042876   -0.117673
 C         -9.788903   -1.564780    0.048470
 C        -10.923220   -0.778212    0.191830
 C        -12.250814   -1.303791    0.193758
 N        -13.353051   -1.682584    0.202049
 C        -10.912268    0.639099    0.358619
 N        -10.962911    1.795763    0.497839
 H         -8.683890    0.902953    0.248302
 H         -7.150304   -5.191568   -0.454278
 F         -9.012908   -7.062167   -0.599636
 F        -11.537734   -6.213322   -0.416245
 H        -11.917336   -3.686348   -0.117025
 N         -1.641177    1.334959   -0.028573
 N          1.641360    1.335325    0.034756
 N          1.123347    6.115242   -0.174361
 N         -1.125827    6.115609    0.154087
 C          1.451155   -0.008853    0.581137
 H          2.316272   -0.260347    1.198582
 H          0.569882   -0.023671    1.222188
 H          1.349993   -0.761065   -0.205734
 C         -1.449746   -0.011805   -0.567995
 H         -1.347722   -0.759840    0.222748
 H         -2.314784   -0.267293   -1.183884
 H         -0.568646   -0.029147   -1.209257
 C         -7.616426    3.127198    0.418511
 H         -8.263888    3.121409   -0.465352
 H         -8.248087    2.896097    1.282646
 H         -7.237056    4.144411    0.545978
 C          7.615660    3.126069   -0.430633
 H          8.265765    3.122598    0.451286
 H          8.244720    2.892548   -1.296025
 H          7.236018    4.142971   -0.559749
 N         -0.002801    6.813504   -0.021031
 C          0.006238    8.266628    0.040998
 H          0.135876    8.600272    1.074980
 H          0.833174    8.628456   -0.569580
 H         -0.944477    8.631866   -0.347191
        89
T1: Total Energy = -4515.03105866
 C         -6.622055   -0.744652   -0.142596
 C         -6.461156   -2.164016   -0.262596
 C         -5.121597   -2.524620   -0.235105
 C         -4.214948   -1.445514   -0.099983
 C         -2.891193   -1.883843   -0.091594
 C         -2.772098   -3.297223   -0.206594
 C         -1.427989   -3.620380   -0.127314
 C         -0.700437   -4.850039   -0.086599
 C          0.700682   -4.850179    0.085252
 S         -5.048882    0.086399   -0.011956
 S         -4.317968   -4.108126   -0.349343
 C          6.622238   -0.744708    0.142527
 C          6.461586   -2.164506    0.257554
 C          5.121962   -2.524995    0.231809
 C          4.214995   -1.445371    0.103176
 C          2.891240   -1.883762    0.095593
 C          2.772493   -3.297620    0.204839
 C          1.428265   -3.620542    0.126928
 C          0.701410   -2.367102    0.012905
 C         -0.701486   -2.367275   -0.006877
 S          5.048741    0.086877    0.019178
 S          4.318687   -4.109023    0.340951
 C         -7.904499   -0.159575   -0.128949
 C         -8.378025    1.149123   -0.029468
 C         -7.547208    2.370258    0.065787
 O         -6.321742    2.445659    0.091272
 C         -8.474716    3.520593    0.123020
 C         -8.152737    4.867555    0.212608
 C         -9.206644    5.770442    0.251552
 C        -10.530286    5.319051    0.201574
 C        -10.850653    3.968026    0.112676
 C         -9.797810    3.047854    0.072345
 C         -9.770903    1.563111   -0.015981
 C        -10.914091    0.764406   -0.063540
 C        -12.239060    1.290807   -0.050819
 N        -13.341355    1.672342   -0.044069
 C        -10.911121   -0.659613   -0.121969
 N        -10.975085   -1.823968   -0.167820
 H         -8.673834   -0.915648   -0.215814
 H         -7.123728    5.208609    0.250972
 F         -8.981187    7.089178    0.337302
 F        -11.510975    6.232156    0.241756
 H        -11.895896    3.693659    0.078328
 C          7.904691   -0.159676    0.127522
 C          8.378117    1.149214    0.030142
 C          7.547179    2.370559   -0.061206
 O          6.321643    2.446172   -0.082392
 C          8.474654    3.520795   -0.120746
 C          8.152572    4.867826   -0.208934
 C          9.206472    5.770577   -0.251055
 C         10.530204    5.318989   -0.205430
 C         10.850665    3.967905   -0.117797
 C          9.797832    3.047863   -0.074342
 C          9.771006    1.563100    0.013743
 C         10.914265    0.764382    0.059253
 C         12.239220    1.290739    0.043372
 N         13.341505    1.672248    0.033980
 C         10.911426   -0.659577    0.119054
 N         10.975558   -1.823878    0.166038
 H          8.674156   -0.916086    0.210160
 H          7.123491    5.209019   -0.243943
 F          8.980927    7.089359   -0.335833
 F         11.510888    6.231961   -0.248651
 H         11.895976    3.693388   -0.086890
 N          1.639582   -1.323090   -0.032796
 N         -1.639860   -1.323595    0.041856
 N         -1.125904   -6.121027   -0.149299
 N          1.128256   -6.121289    0.128536
 C         -1.452795    0.021881    0.588577
 H         -2.321322    0.272958    1.201253
 H         -0.574497    0.036709    1.233770
 H         -1.347994    0.771972   -0.199471
 C          1.451231    0.025249   -0.571876
 H          1.345630    0.770742    0.220431
 H          2.319646    0.280626   -1.182901
 H          0.573070    0.042979   -1.217221
 C          7.601401   -3.135993    0.391035
 H          8.294564   -3.068680   -0.454613
 H          8.184598   -2.950587    1.300247
 H          7.231880   -4.164098    0.437216
 C         -7.600680   -3.134920   -0.402632
 H         -8.295918   -3.070852    0.441566
 H         -8.181626   -2.945958   -1.312555
 H         -7.231075   -4.162849   -0.451907
 N          0.002491   -6.821214   -0.021370
 C         -0.004913   -8.275421    0.037384
 H         -0.130599   -8.609658    1.071363
 H         -0.833533   -8.636611   -0.571137
 H          0.945150   -8.637015   -0.355102
        89
S1: Total Energy = -4515.01512659
 C         -6.625711   -0.745226   -0.145265
 C         -6.471133   -2.155069   -0.275992
 C         -5.124654   -2.521561   -0.252918
 C         -4.223137   -1.446813   -0.109989
 C         -2.892255   -1.889968   -0.107188
 C         -2.777189   -3.295481   -0.235943
 C         -1.427759   -3.620890   -0.159576
 C         -0.701265   -4.849402   -0.125366
 C          0.699666   -4.850855    0.054053
 S         -5.051094    0.082397   -0.008301
 S         -4.324019   -4.102754   -0.382930
 C          6.624121   -0.747440    0.140966
 C          6.469411   -2.159141    0.248017
 C          5.122950   -2.525231    0.218060
 C          4.221398   -1.448072    0.095487
 C          2.890487   -1.891310    0.085206
 C          2.775695   -3.298985    0.187948
 C          1.426183   -3.622997    0.107405
 C          0.703064   -2.371164   -0.000715
 C         -0.704934   -2.371127   -0.027147
 S          5.049749    0.082291    0.015109
 S          4.322757   -4.108829    0.317625
 C         -7.912848   -0.152786   -0.125793
 C         -8.381477    1.149224   -0.015454
 C         -7.547453    2.368420    0.094644
 O         -6.321818    2.439612    0.122678
 C         -8.472749    3.518185    0.163176
 C         -8.147930    4.863171    0.269159
 C         -9.199658    5.768350    0.317339
 C        -10.525088    5.320361    0.260041
 C        -10.849472    3.972318    0.154643
 C         -9.798557    3.047622    0.104851
 C         -9.779127    1.569497   -0.000099
 C        -10.922868    0.771367   -0.060079
 C        -12.247174    1.298205   -0.043217
 N        -13.349148    1.681799   -0.033650
 C        -10.919655   -0.651115   -0.137158
 N        -10.981002   -1.815365   -0.198885
 H         -8.682612   -0.908167   -0.218578
 H         -7.118069    5.201033    0.313102
 F         -8.971493    7.085442    0.419093
 F        -11.502534    6.236267    0.309870
 H        -11.895317    3.700888    0.115639
 C          7.911066   -0.154295    0.143600
 C          8.380902    1.148535    0.050316
 C          7.549896    2.364938   -0.104425
 O          6.324955    2.435831   -0.154789
 C          8.477539    3.511565   -0.192021
 C          8.156377    4.852310   -0.350035
 C          9.209912    5.754720   -0.409879
 C         10.533494    5.308276   -0.312058
 C         10.854197    3.964703   -0.152364
 C          9.801443    3.042804   -0.090669
 C          9.778110    1.569995    0.071625
 C         10.917974    0.778297    0.222787
 C         12.242388    1.305058    0.225954
 N         13.344338    1.688759    0.234341
 C         10.909559   -0.635227    0.399752
 N         10.966117   -1.791660    0.549900
 H          8.679975   -0.910506    0.236927
 H          7.127914    5.189009   -0.424858
 F          8.985260    7.067531   -0.562337
 F         11.512893    6.221172   -0.376649
 H         11.898813    3.694313   -0.083964
 N          1.639576   -1.328643   -0.041233
 N         -1.641562   -1.329657    0.031942
 N         -1.126115   -6.120726   -0.199555
 N          1.126731   -6.123102    0.090137
 C         -1.455551    0.015069    0.581019
 H         -2.326324    0.265295    1.190579
 H         -0.580026    0.028163    1.229817
 H         -1.347678    0.766061   -0.205634
 C          1.452513    0.027549   -0.560771
 H          1.342080    0.760713    0.242224
 H          2.324192    0.292514   -1.162718
 H          0.578360    0.054032   -1.211119
 C          7.606779   -3.135794    0.370096
 H          8.251398   -3.116676   -0.515974
 H          8.241951   -2.915420    1.234701
 H          7.231049   -4.156152    0.485108
 C         -7.608299   -3.128661   -0.422825
 H         -8.307994   -3.067452    0.417628
 H         -8.184629   -2.940480   -1.335687
 H         -7.236098   -4.155665   -0.471068
 N          0.001688   -6.821292   -0.070744
 C         -0.005819   -8.275993   -0.023228
 H         -0.129322   -8.617908    1.008476
 H         -0.835965   -8.631979   -0.632658
 H          0.943279   -8.634966   -0.420473
