        85
S0: Total Energy = -4421.69307361
 C         -6.644093    0.302170    0.111479
 C         -6.484714    1.706627    0.245798
 C         -5.135401    2.071605    0.226405
 C         -4.241182    0.993532    0.085890
 C         -2.902445    1.436988    0.087676
 C         -2.784920    2.826418    0.219086
 C         -1.416605    3.145155    0.155869
 C         -0.715725    4.393295    0.107543
 C          0.715729    4.393298   -0.107507
 S         -5.066429   -0.527221   -0.025111
 S         -4.323077    3.643830    0.356902
 C          6.644108    0.302188   -0.111510
 C          6.484725    1.706644   -0.245825
 C          5.135411    2.071619   -0.226408
 C          4.241196    0.993544   -0.085891
 C          2.902458    1.436997   -0.087665
 C          2.784928    2.826427   -0.219067
 C          1.416612    3.145160   -0.155839
 C          0.716312    1.909250   -0.022321
 C         -0.716300    1.909247    0.022348
 S          5.066448   -0.527207    0.025094
 S          4.323083    3.643844   -0.356885
 C         -7.928797   -0.286207    0.095699
 C         -8.405636   -1.581378   -0.022198
 C         -7.583911   -2.800190   -0.183618
 O         -6.358605   -2.876301   -0.227900
 C         -8.519144   -3.941111   -0.285560
 C         -8.213149   -5.284631   -0.451291
 C         -9.270124   -6.195062   -0.525848
 C        -10.591957   -5.743463   -0.433981
 C        -10.894855   -4.387552   -0.266078
 C         -9.841379   -3.469751   -0.189936
 C         -9.810350   -1.992129   -0.016756
 C        -10.940049   -1.199335    0.125703
 C        -12.273037   -1.712501    0.119321
 N        -13.381429   -2.072778    0.122031
 C        -10.920559    0.217249    0.300462
 N        -10.963165    1.373487    0.446105
 H         -8.693991    0.473186    0.198626
 H         -7.177344   -5.602798   -0.519587
 H        -11.930450   -4.083811   -0.200318
 C          7.928811   -0.286192   -0.095728
 C          8.405637   -1.581367    0.022180
 C          7.583894   -2.800163    0.183618
 O          6.358586   -2.876255    0.227899
 C          8.519110   -3.941096    0.285581
 C          8.213095   -5.284609    0.451337
 C          9.270057   -6.195054    0.525910
 C         10.591897   -5.743476    0.434033
 C         10.894814   -4.387573    0.266104
 C          9.841352   -3.469758    0.189945
 C          9.810346   -1.992139    0.016735
 C         10.940061   -1.199373   -0.125756
 C         12.273036   -1.712571   -0.119378
 N         13.381417   -2.072879   -0.122092
 C         10.920604    0.217207   -0.300553
 N         10.963252    1.373439   -0.446229
 H          8.694010    0.473195   -0.198657
 H          7.177286   -5.602759    0.519640
 H         11.930414   -4.083848    0.200338
 N          1.644393    0.875582    0.046490
 N         -1.644379    0.875578   -0.046476
 N         -1.249463    5.605896    0.188098
 N          1.249463    5.605901   -0.188057
 C         -1.455278   -0.478197   -0.568304
 H         -2.319771   -0.736646   -1.183497
 H         -0.572199   -0.506338   -1.206208
 H         -1.359747   -1.216458    0.232347
 C          1.455302   -0.478188    0.568338
 H          1.359777   -1.216461   -0.232303
 H          2.319796   -0.736622    1.183537
 H          0.572221   -0.506325    1.206240
 C          7.614600    2.690878   -0.384346
 H          8.257565    2.694123    0.502805
 H          8.252802    2.459480   -1.243542
 H          7.229710    3.705117   -0.519247
 C         -7.614598    2.690847    0.384343
 H         -8.257822    2.693810   -0.502619
 H         -8.252539    2.459656    1.243791
 H         -7.229723    3.705145    0.518846
 S         -0.000002    6.683373    0.000023
 H         11.406841   -6.458803    0.493885
 H          9.069512   -7.254398    0.655601
 H         -9.069594   -7.254411   -0.655518
 H        -11.406912   -6.458779   -0.493819
        85
T1: Total Energy = -4421.64734503
 C         -6.633946    0.302066    0.129846
 C         -6.461969    1.721397    0.245439
 C         -5.120232    2.071199    0.222176
 C         -4.221335    0.983995    0.094056
 C         -2.895611    1.413908    0.087176
 C         -2.766783    2.826151    0.198342
 C         -1.419368    3.137812    0.125420
 C         -0.716464    4.389578    0.088484
 C          0.716484    4.389583   -0.088343
 S         -5.066686   -0.542730    0.012443
 S         -4.303626    3.649675    0.332271
 C          6.633962    0.302067   -0.129899
 C          6.461988    1.721402   -0.245428
 C          5.120251    2.071206   -0.222154
 C          4.221352    0.983995   -0.094106
 C          2.895628    1.413912   -0.087186
 C          2.766803    2.826162   -0.198272
 C          1.419387    3.137819   -0.125352
 C          0.701699    1.883259   -0.008540
 C         -0.701682    1.883260    0.008539
 S          5.066699   -0.542737   -0.012599
 S          4.303649    3.649691   -0.332145
 C         -7.920946   -0.271859    0.103658
 C         -8.403382   -1.576882    0.007057
 C         -7.581423   -2.808247   -0.043492
 O         -6.355201   -2.886672   -0.045665
 C         -8.515998   -3.952747   -0.084626
 C         -8.212460   -5.305467   -0.127246
 C         -9.272331   -6.217039   -0.157154
 C        -10.592128   -5.753799   -0.143983
 C        -10.892472   -4.385964   -0.102787
 C         -9.837523   -3.468784   -0.072793
 C         -9.799984   -1.981095   -0.032425
 C        -10.932995   -1.168175   -0.052587
 C        -12.265923   -1.675081   -0.083314
 N        -13.376077   -2.031925   -0.106627
 C        -10.912169    0.257411   -0.061659
 N        -10.959814    1.423301   -0.075062
 H         -8.684601    0.491451    0.176527
 H         -7.176859   -5.631672   -0.136129
 H        -11.927793   -4.074243   -0.093531
 C          7.920960   -0.271858   -0.103695
 C          8.403382   -1.576888   -0.007148
 C          7.581402   -2.808240    0.043363
 O          6.355179   -2.886638    0.045658
 C          8.515959   -3.952749    0.084692
 C          8.212398   -5.305458    0.127477
 C          9.272254   -6.217043    0.157522
 C         10.592058   -5.753827    0.144323
 C         10.892426   -4.386002    0.102965
 C          9.837493   -3.468808    0.072833
 C          9.799979   -1.981121    0.032308
 C         10.932999   -1.168213    0.052359
 C         12.265925   -1.675126    0.083081
 N         13.376084   -2.031955    0.106376
 C         10.912186    0.257374    0.061320
 N         10.959815    1.423265    0.074664
 H          8.684619    0.491453   -0.176508
 H          7.176792   -5.631644    0.136370
 H         11.927753   -4.074301    0.093703
 N          1.644362    0.847577    0.041931
 N         -1.644343    0.847571   -0.041961
 N         -1.253435    5.598815    0.156462
 N          1.253456    5.598823   -0.156249
 C         -1.461719   -0.507265   -0.564800
 H         -2.335842   -0.768390   -1.165050
 H         -0.588798   -0.534632   -1.216974
 H         -1.351423   -1.243058    0.236047
 C          1.461724   -0.507333    0.564557
 H          1.351438   -1.243000   -0.236410
 H          2.335836   -0.768556    1.164782
 H          0.588795   -0.534801    1.216713
 C          7.594017    2.701934   -0.379286
 H          8.301896    2.624700    0.452959
 H          8.162843    2.535291   -1.301397
 H          7.217747    3.728405   -0.402170
 C         -7.593991    2.701921    0.379411
 H         -8.302020    2.624617   -0.452699
 H         -8.162645    2.535337    1.301640
 H         -7.217732    3.728400    0.402148
 S          0.000010    6.680719    0.000130
 H         11.409776   -6.468371    0.166573
 H          9.073940   -7.284191    0.190555
 H         -9.074036   -7.284193   -0.190063
 H        -11.409858   -6.468333   -0.166122
        85
S1: Total Energy = -4421.63034574
 C         -6.634191    0.305682    0.101042
 C         -6.470793    1.715926    0.223268
 C         -5.122500    2.073465    0.205426
 C         -4.227142    0.991029    0.076982
 C         -2.895165    1.427214    0.077671
 C         -2.771743    2.832944    0.195912
 C         -1.419058    3.146941    0.128195
 C         -0.716441    4.397258    0.090944
 C          0.716439    4.397264   -0.090794
 S         -5.064812   -0.533812   -0.022967
 S         -4.311324    3.651714    0.324457
 C          6.634209    0.305717   -0.100965
 C          6.470806    1.715964   -0.223145
 C          5.122511    2.073497   -0.205294
 C          4.227157    0.991054   -0.076885
 C          2.895178    1.427231   -0.077587
 C          2.771750    2.832963   -0.195791
 C          1.419062    3.146951   -0.128080
 C          0.704546    1.895681   -0.009156
 C         -0.704536    1.895677    0.009232
 S          5.064836   -0.533780    0.023087
 S          4.311330    3.651746   -0.324278
 C         -7.925206   -0.278817    0.088712
 C         -8.401488   -1.578167   -0.018481
 C         -7.575129   -2.799283   -0.172677
 O         -6.348969   -2.868631   -0.213011
 C         -8.505291   -3.942095   -0.272767
 C         -8.196922   -5.284792   -0.432538
 C         -9.252807   -6.198850   -0.505816
 C        -10.574313   -5.746826   -0.417647
 C        -10.880445   -4.389994   -0.255240
 C         -9.829332   -3.468523   -0.180892
 C         -9.800782   -1.994303   -0.012692
 C        -10.935990   -1.195242    0.129494
 C        -12.266342   -1.708339    0.118258
 N        -13.374955   -2.072023    0.115963
 C        -10.918852    0.218226    0.309830
 N        -10.967194    1.374729    0.461965
 H         -8.689500    0.481954    0.182267
 H         -7.160342   -5.601569   -0.497381
 H        -11.916599   -4.087412   -0.191944
 C          7.925221   -0.278791   -0.088728
 C          8.401491   -1.578148    0.018424
 C          7.575122   -2.799240    0.172748
 O          6.348963   -2.868564    0.213166
 C          8.505272   -3.942059    0.272877
 C          8.196894   -5.284734    0.432808
 C          9.252769   -6.198802    0.506097
 C         10.574276   -5.746809    0.417777
 C         10.880417   -4.389998    0.255203
 C          9.829313   -3.468518    0.180848
 C          9.800776   -1.994316    0.012497
 C         10.935986   -1.195301   -0.129941
 C         12.266323   -1.708437   -0.118825
 N         13.374926   -2.072154   -0.116639
 C         10.918863    0.218142   -0.310470
 N         10.967225    1.374622   -0.462771
 H          8.689516    0.481973   -0.182324
 H          7.160313   -5.601488    0.497764
 H         11.916571   -4.087439    0.191796
 N          1.644005    0.861283    0.049539
 N         -1.643990    0.861275   -0.049482
 N         -1.252922    5.607505    0.160425
 N          1.252914    5.607515   -0.160249
 C         -1.459684   -0.496722   -0.564139
 H         -2.332176   -0.760425   -1.165346
 H         -0.585177   -0.527429   -1.213754
 H         -1.352388   -1.227595    0.241441
 C          1.459702   -0.496739    0.564131
 H          1.352385   -1.227569   -0.241486
 H          2.332207   -0.760478    1.165305
 H          0.585211   -0.527477    1.213766
 C          7.603100    2.698061   -0.349115
 H          8.249012    2.685168    0.536032
 H          8.238871    2.477621   -1.213327
 H          7.222251    3.716198   -0.467242
 C         -7.603091    2.698014    0.349268
 H         -8.249085    2.685058   -0.535816
 H         -8.238778    2.477613    1.213554
 H         -7.222248    3.716163    0.467301
 S         -0.000006    6.688014    0.000104
 H         11.388752   -6.463123    0.476157
 H          9.050680   -7.258338    0.631520
 H         -9.050725   -7.258402   -0.631114
 H        -11.388796   -6.463133   -0.476016
