        85
S0: Total Energy = -4620.15970619
 C         -6.643865    0.552567    0.138927
 C         -6.482944    1.957503    0.273391
 C         -5.134007    2.321293    0.248375
 C         -4.240495    1.242582    0.103216
 C         -2.901766    1.685160    0.099095
 C         -2.783445    3.074825    0.230806
 C         -1.415697    3.393221    0.161960
 C         -0.715146    4.641497    0.110757
 C          0.715137    4.641497   -0.110712
 S         -5.066673   -0.277417   -0.004702
 S         -4.320388    3.893068    0.376041
 C          6.643848    0.552553   -0.138961
 C          6.482928    1.957489   -0.273417
 C          5.133991    2.321284   -0.248379
 C          4.240479    1.242573   -0.103224
 C          2.901751    1.685155   -0.099090
 C          2.783433    3.074821   -0.230785
 C          1.415685    3.393220   -0.161927
 C          0.716274    2.156876   -0.025041
 C         -0.716287    2.156876    0.025064
 S          5.066655   -0.277429    0.004672
 S          4.320377    3.893062   -0.376018
 C         -7.927928   -0.034754    0.127342
 C         -8.406231   -1.330438    0.010323
 C         -7.586445   -2.547170   -0.152597
 O         -6.362388   -2.631329   -0.201078
 C         -8.525720   -3.688825   -0.251502
 C         -8.210687   -5.028342   -0.417423
 C         -9.282116   -5.913344   -0.485467
 C        -10.608076   -5.489307   -0.393392
 C        -10.901405   -4.134593   -0.225552
 C         -9.846448   -3.215040   -0.152320
 C         -9.812026   -1.739907    0.019595
 C        -10.940221   -0.944848    0.164023
 C        -12.272725   -1.458490    0.161394
 N        -13.379791   -1.822970    0.166695
 C        -10.919719    0.471716    0.336898
 N        -10.963482    1.628080    0.481212
 H         -8.692880    0.724468    0.233197
 H         -7.184311   -5.371070   -0.490966
 F         -9.035909   -7.225195   -0.646211
 H        -11.937191   -3.832509   -0.157298
 C          7.927912   -0.034766   -0.127372
 C          8.406227   -1.330446   -0.010343
 C          7.586460   -2.547188    0.152597
 O          6.362405   -2.631367    0.201083
 C          8.525754   -3.688826    0.251518
 C          8.210743   -5.028345    0.417465
 C          9.282186   -5.913330    0.485520
 C         10.608138   -5.489273    0.393430
 C         10.901446   -4.134558    0.225564
 C          9.846475   -3.215023    0.152320
 C          9.812028   -1.739893   -0.019622
 C         10.940204   -0.944816   -0.164086
 C         12.272720   -1.458428   -0.161467
 N         13.379794   -1.822881   -0.166778
 C         10.919666    0.471744   -0.336996
 N         10.963390    1.628106   -0.481333
 H          8.692862    0.724458   -0.233227
 H          7.184373   -5.371088    0.491019
 F          9.036000   -7.225182    0.646289
 H         11.937228   -3.832460    0.157300
 N          1.644553    1.123742    0.040954
 N         -1.644569    1.123747   -0.040951
 N         -1.248501    5.854054    0.193746
 N          1.248494    5.854054   -0.193689
 C         -1.457625   -0.230690   -0.562743
 H         -2.323937   -0.488624   -1.175471
 H         -0.576666   -0.259364   -1.203374
 H         -1.360218   -0.968186    0.238224
 C          1.457611   -0.230689    0.562765
 H          1.360209   -0.968196   -0.238193
 H          2.323922   -0.488613    1.175499
 H          0.576650   -0.259356    1.203393
 C          7.611686    2.941992   -0.417356
 H          8.258739    2.945067    0.466783
 H          8.245214    2.710572   -1.279992
 H          7.225932    3.956104   -0.550208
 C         -7.611706    2.941996    0.417367
 H         -8.259052    2.944763   -0.466555
 H         -8.244938    2.710806    1.280286
 H         -7.225963    3.956171    0.549777
 S         -0.000003    6.931811    0.000032
 H         11.402098   -6.225824    0.454087
 H        -11.402023   -6.225871   -0.454038
        85
T1: Total Energy = -4620.11391382
 C         -6.634032    0.553855    0.138212
 C         -6.461078    1.973257    0.254591
 C         -5.119314    2.321992    0.229426
 C         -4.220966    1.234332    0.099157
 C         -2.895017    1.663243    0.090265
 C         -2.765791    3.075965    0.202066
 C         -1.418974    3.387261    0.127172
 C         -0.716224    4.639198    0.089511
 C          0.716204    4.639205   -0.089182
 S         -5.067211   -0.291529    0.017591
 S         -4.301953    3.900116    0.339076
 C          6.633999    0.553850   -0.138076
 C          6.461053    1.973266   -0.254292
 C          5.119290    2.322003   -0.229161
 C          4.220933    1.234327   -0.099089
 C          2.894984    1.663242   -0.090209
 C          2.765768    3.075977   -0.201847
 C          1.418948    3.387268   -0.126977
 C          0.701510    2.132072   -0.008988
 C         -0.701544    2.132075    0.009024
 S          5.067173   -0.291542   -0.017603
 S          4.301938    3.900143   -0.338658
 C         -7.920691   -0.019599    0.114129
 C         -8.403971   -1.325067    0.016713
 C         -7.584333   -2.553864   -0.038791
 O         -6.359164   -2.641397   -0.043196
 C         -8.522995   -3.698995   -0.082631
 C         -8.210104   -5.047605   -0.131345
 C         -9.284339   -5.933126   -0.162713
 C        -10.608381   -5.498536   -0.146785
 C        -10.899491   -4.131769   -0.099222
 C         -9.843250   -3.213325   -0.066486
 C         -9.802326   -1.727766   -0.019850
 C        -10.933937   -0.913477   -0.031460
 C        -12.266618   -1.420985   -0.059059
 N        -13.375613   -1.781551   -0.079491
 C        -10.913225    0.512118   -0.033229
 N        -10.963316    1.677885   -0.040616
 H         -8.684303    0.743450    0.189553
 H         -7.183952   -5.398665   -0.144160
 F         -9.038741   -7.255332   -0.209524
 H        -11.935179   -3.821888   -0.087411
 C          7.920667   -0.019586   -0.114031
 C          8.403979   -1.325058   -0.016879
 C          7.584349   -2.553855    0.038710
 O          6.359179   -2.641389    0.043105
 C          8.523010   -3.698975    0.082752
 C          8.210118   -5.047575    0.131729
 C          9.284352   -5.933089    0.163314
 C         10.608393   -5.498499    0.147349
 C         10.899503   -4.131742    0.099494
 C          9.843263   -3.213305    0.066513
 C          9.802343   -1.727754    0.019536
 C         10.933976   -0.913490    0.030567
 C         12.266653   -1.421022    0.057999
 N         13.375643   -1.781612    0.078274
 C         10.913329    0.512108    0.031718
 N         10.963496    1.677875    0.038569
 H          8.684258    0.743505   -0.189239
 H          7.183965   -5.398630    0.144591
 F          9.038755   -7.255285    0.210395
 H         11.935192   -3.821865    0.087671
 N          1.644552    1.096853    0.041101
 N         -1.644592    1.096865   -0.041161
 N         -1.253106    5.848355    0.158256
 N          1.253092    5.848367   -0.157791
 C         -1.462712   -0.259169   -0.561903
 H         -2.337045   -0.520486   -1.161644
 H         -0.590266   -0.287786   -1.214473
 H         -1.352577   -0.993276    0.240361
 C          1.462650   -0.259256    0.561641
 H          1.352474   -0.993236   -0.240733
 H          2.336996   -0.520686    1.161313
 H          0.590224   -0.287954    1.214236
 C          7.592415    2.954116   -0.390316
 H          8.300296    2.878398    0.442080
 H          8.160723    2.786137   -1.312480
 H          7.215748    3.980350   -0.414624
 C         -7.592417    2.954110    0.390789
 H         -8.300661    2.878130   -0.441270
 H         -8.160305    2.786391    1.313266
 H         -7.215770    3.980363    0.414628
 S         -0.000004    6.930507    0.000302
 H         11.404969   -6.234425    0.172547
 H        -11.404956   -6.234470   -0.171782
        85
S1: Total Energy = -4620.09751833
 C         -6.634167    0.556023    0.128551
 C         -6.468698    1.967068    0.250638
 C         -5.120904    2.323005    0.227109
 C         -4.226173    1.239731    0.094257
 C         -2.894331    1.674711    0.088880
 C         -2.769968    3.081088    0.207038
 C         -1.418289    3.394670    0.133585
 C         -0.715920    4.645210    0.093739
 C          0.715955    4.645218   -0.093656
 S         -5.065221   -0.284383   -0.002225
 S         -4.308328    3.900854    0.342975
 C          6.634186    0.556021   -0.128653
 C          6.468727    1.967079   -0.250597
 C          5.120931    2.323012   -0.227155
 C          4.226189    1.239722   -0.094512
 C          2.894348    1.674706   -0.089144
 C          2.769997    3.081100   -0.207116
 C          1.418317    3.394679   -0.133668
 C          0.704242    2.142655   -0.011740
 C         -0.704225    2.142659    0.011466
 S          5.065226   -0.284408    0.001799
 S          4.308366    3.900877   -0.342877
 C         -7.924234   -0.026857    0.120687
 C         -8.402773   -1.327127    0.014324
 C         -7.579457   -2.546583   -0.141491
 O         -6.354592   -2.625494   -0.185698
 C         -8.514426   -3.689867   -0.238960
 C         -8.197994   -5.028751   -0.399605
 C         -9.269273   -5.916260   -0.467273
 C        -10.594189   -5.491816   -0.379117
 C        -10.889710   -4.135289   -0.215926
 C         -9.836439   -3.213665   -0.143644
 C         -9.802679   -1.740599    0.024124
 C        -10.936095   -0.939502    0.169063
 C        -12.266208   -1.452804    0.162961
 N        -13.373788   -1.819664    0.164662
 C        -10.917905    0.474130    0.347312
 N        -10.967861    1.630712    0.497781
 H         -8.688137    0.733902    0.217131
 H         -7.171198   -5.371171   -0.469640
 F         -9.020180   -7.229420   -0.623572
 H        -11.925836   -3.833660   -0.150417
 C          7.924252   -0.026859   -0.120672
 C          8.402769   -1.327139   -0.014345
 C          7.579424   -2.546590    0.141350
 O          6.354554   -2.625484    0.185454
 C          8.514372   -3.689879    0.238957
 C          8.197912   -5.028756    0.399598
 C          9.269176   -5.916271    0.467415
 C         10.594105   -5.491840    0.379402
 C         10.889656   -4.135319    0.216213
 C          9.836401   -3.213689    0.143788
 C          9.802673   -1.740626   -0.024016
 C         10.936114   -0.939552   -0.168888
 C         12.266218   -1.452875   -0.162634
 N         13.373791   -1.819754   -0.164215
 C         10.917962    0.474070   -0.347230
 N         10.967962    1.630636   -0.497796
 H          8.688169    0.733906   -0.216955
 H          7.171105   -5.371167    0.469518
 F          9.020054   -7.229426    0.623719
 H         11.925792   -3.833699    0.150820
 N          1.644150    1.108702    0.043658
 N         -1.644141    1.108720   -0.044055
 N         -1.252114    5.855335    0.165475
 N          1.252159    5.855349   -0.165212
 C         -1.461870   -0.249897   -0.558620
 H         -2.336219   -0.513292   -1.157139
 H         -0.589645   -0.281013   -1.211124
 H         -1.352344   -0.979967    0.247238
 C          1.461854   -0.249994    0.558006
 H          1.352331   -0.979936   -0.247968
 H          2.336192   -0.513492    1.156495
 H          0.589620   -0.281202    1.210493
 C          7.599860    2.949549   -0.381721
 H          8.251020    2.934996    0.499529
 H          8.229822    2.730432   -1.250555
 H          7.218211    3.967793   -0.495668
 C         -7.599817    2.949517    0.382033
 H         -8.251158    2.935002   -0.499082
 H         -8.229599    2.730344    1.250986
 H         -7.218160    3.967760    0.495957
 S          0.000025    6.936158    0.000196
 H         11.388117   -6.228625    0.439318
 H        -11.388213   -6.228596   -0.438921
