        85
S0: Total Energy = -4818.61039249
 C          6.643259   -0.759963    0.159319
 C          6.481421   -2.165260    0.293685
 C          5.132755   -2.528422    0.264515
 C          4.239901   -1.449189    0.116280
 C          2.901304   -1.891280    0.107910
 C          2.782387   -3.281181    0.239420
 C          1.415050   -3.599414    0.166351
 C          0.714703   -4.847785    0.113014
 C         -0.714701   -4.847783   -0.112988
 S          5.066880    0.070565    0.010607
 S          4.318392   -4.099932    0.389826
 C         -6.643264   -0.759965   -0.159358
 C         -6.481419   -2.165256   -0.293767
 C         -5.132756   -2.528420   -0.264532
 C         -4.239908   -1.449194   -0.116219
 C         -2.901312   -1.891285   -0.107810
 C         -2.782389   -3.281179   -0.239364
 C         -1.415051   -3.599412   -0.166272
 C         -0.716166   -2.362904   -0.027102
 C          0.716158   -2.362900    0.027241
 S         -5.066893    0.070556   -0.010523
 S         -4.318388   -4.099928   -0.389851
 C          7.927081   -0.173554    0.151611
 C          8.406681    1.122238    0.035885
 C          7.588416    2.340726   -0.129709
 O          6.364704    2.426222   -0.182238
 C          8.528323    3.479364   -0.224836
 C          8.217204    4.822517   -0.391869
 C          9.277126    5.714639   -0.457331
 C         10.598836    5.260360   -0.357089
 C         10.907890    3.916181   -0.189203
 C          9.847107    3.005247   -0.121313
 C          9.811470    1.528266    0.049861
 C         10.940794    0.736185    0.196520
 C         12.271376    1.254586    0.197362
 N         13.375457    1.627719    0.204846
 C         10.921571   -0.680622    0.367891
 N         10.964968   -1.837027    0.510948
 H          8.691639   -0.932843    0.259995
 H          7.191417    5.166504   -0.469022
 F          9.063819    7.026751   -0.617750
 F         11.583699    6.165875   -0.427712
 H         11.950377    3.638149   -0.119553
 C         -7.927086   -0.173552   -0.151672
 C         -8.406682    1.122236   -0.035894
 C         -7.588421    2.340710    0.129809
 O         -6.364714    2.426192    0.182475
 C         -8.528327    3.479354    0.224885
 C         -8.217209    4.822503    0.391951
 C         -9.277128    5.714633    0.457348
 C        -10.598835    5.260365    0.357012
 C        -10.907888    3.916190    0.189094
 C         -9.847107    3.005247    0.121270
 C         -9.811468    1.528268   -0.049913
 C        -10.940785    0.736189   -0.196639
 C        -12.271367    1.254590   -0.197562
 N        -13.375447    1.627724   -0.205118
 C        -10.921549   -0.680615   -0.368020
 N        -10.964925   -1.837024   -0.511055
 H         -8.691645   -0.932832   -0.260116
 H         -7.191424    5.166482    0.469177
 F         -9.063822    7.026741    0.617796
 F        -11.583696    6.165887    0.427576
 H        -11.950373    3.638167    0.119370
 N         -1.644607   -1.329803    0.036192
 N          1.644595   -1.329799   -0.036035
 N          1.247824   -6.060287    0.197674
 N         -1.247816   -6.060283   -0.197707
 C          1.459041    0.024553   -0.558723
 H          2.327044    0.282377   -1.169077
 H          0.579962    0.052902   -1.201944
 H          1.359248    0.762173    0.241815
 C         -1.459075    0.024489    0.559054
 H         -1.359272    0.762207   -0.241392
 H         -2.327092    0.282233    1.169422
 H         -0.580008    0.052765    1.202294
 C         -7.609484   -3.149819   -0.441710
 H         -8.259859   -3.152655    0.439994
 H         -8.239559   -2.918652   -1.306965
 H         -7.223202   -4.163933   -0.572786
 C          7.609499   -3.149815    0.441578
 H          8.260197   -3.152224   -0.439884
 H          8.239242   -2.918971    1.307166
 H          7.223244   -4.164013    0.572073
 S          0.000005   -7.138023   -0.000037
        85
T1: Total Energy = -4818.56518765
 C         -6.631760    0.761340    0.143550
 C         -6.460206    2.180204    0.263557
 C         -5.118495    2.530457    0.237074
 C         -4.220020    1.443669    0.103490
 C         -2.894138    1.873464    0.093148
 C         -2.765686    3.285947    0.207491
 C         -1.418862    3.597888    0.130642
 C         -0.715932    4.849762    0.091643
 C          0.715928    4.849769   -0.091294
 S         -5.065241   -0.081691    0.010898
 S         -4.302181    4.108921    0.347529
 C          6.631737    0.761328   -0.143615
 C          6.460188    2.180203   -0.263489
 C          5.118478    2.530458   -0.236972
 C          4.219999    1.443659   -0.103505
 C          2.894119    1.873459   -0.093117
 C          2.765674    3.285955   -0.207310
 C          1.418851    3.597895   -0.130428
 C          0.701687    2.343256   -0.009861
 C         -0.701704    2.343258    0.009939
 S          5.065216   -0.081711   -0.011039
 S          4.302172    4.108938   -0.347255
 C         -7.918191    0.185793    0.139695
 C         -8.401757   -1.118650    0.036418
 C         -7.581583   -2.341523   -0.114515
 O         -6.357227   -2.423976   -0.160463
 C         -8.518446   -3.481828   -0.203610
 C         -8.207910   -4.825808   -0.357399
 C         -9.268946   -5.718761   -0.419330
 C        -10.588509   -5.261125   -0.328146
 C        -10.897265   -3.913515   -0.173096
 C         -9.836992   -3.003254   -0.109289
 C         -9.797785   -1.524555    0.048769
 C        -10.932190   -0.725151    0.185317
 C        -12.260866   -1.242952    0.183408
 N        -13.365517   -1.617199    0.187959
 C        -10.916107    0.690909    0.347775
 N        -10.968670    1.848556    0.484384
 H         -8.681136    0.947161    0.236340
 H         -7.182224   -5.171741   -0.427402
 F         -9.054938   -7.033527   -0.567640
 F        -11.576214   -6.164673   -0.394359
 H        -11.939798   -3.634041   -0.109949
 C          7.918167    0.185780   -0.139839
 C          8.401745   -1.118662   -0.036618
 C          7.581596   -2.341536    0.114437
 O          6.357241   -2.424010    0.160385
 C          8.518484   -3.481809    0.203671
 C          8.207978   -4.825776    0.357642
 C          9.269035   -5.718695    0.419703
 C         10.588588   -5.261041    0.328466
 C         10.897314   -3.913447    0.173217
 C          9.837020   -3.003221    0.109273
 C          9.797778   -1.524549   -0.049029
 C         10.932151   -0.725155   -0.185894
 C         12.260840   -1.242923   -0.183966
 N         13.365498   -1.617147   -0.188509
 C         10.916010    0.690852   -0.348821
 N         10.968514    1.848455   -0.485818
 H          8.681107    0.947155   -0.236468
 H          7.182300   -5.171722    0.427690
 F          9.055056   -7.033446    0.568201
 F         11.576314   -6.164556    0.394823
 H         11.939840   -3.633957    0.110038
 N          1.643875    1.307836    0.040739
 N         -1.643897    1.307848   -0.040769
 N         -1.252492    6.058964    0.161929
 N          1.252494    6.058975   -0.161453
 C         -1.461775   -0.047502   -0.563635
 H         -2.334752   -0.307057   -1.166086
 H         -0.587834   -0.075373   -1.214135
 H         -1.354066   -0.782951    0.237692
 C          1.461745   -0.047576    0.563441
 H          1.354023   -0.782923   -0.237977
 H          2.334727   -0.307213    1.165851
 H          0.587811   -0.075521    1.213946
 C          7.592826    3.159838   -0.397137
 H          8.258622    3.128872    0.472673
 H          8.207236    2.951141   -1.279872
 H          7.213797    4.181278   -0.489194
 C         -7.592838    3.159831    0.397328
 H         -8.258751    3.128849   -0.472389
 H         -8.207126    2.951140    1.280151
 H         -7.213806    4.181276    0.489324
 S          0.000003    7.140890    0.000296
        85
S1: Total Energy = -4818.54907465
 C         -6.633361    0.763332    0.149527
 C         -6.467942    2.173570    0.272152
 C         -5.119689    2.529564    0.244435
 C         -4.226118    1.446287    0.107921
 C         -2.893796    1.881168    0.098563
 C         -2.769260    3.287319    0.217243
 C         -1.417693    3.600931    0.139104
 C         -0.715455    4.851469    0.096700
 C          0.715462    4.851473   -0.096632
 S         -5.065695   -0.077250    0.013274
 S         -4.306921    4.107108    0.358714
 C          6.633356    0.763322   -0.149549
 C          6.467946    2.173569   -0.272077
 C          5.119692    2.529564   -0.244398
 C          4.226112    1.446279   -0.108006
 C          2.893791    1.881164   -0.098674
 C          2.769265    3.287324   -0.217246
 C          1.417696    3.600935   -0.139125
 C          0.704384    2.349160   -0.014128
 C         -0.704389    2.349162    0.014000
 S          5.065682   -0.077267   -0.013431
 S          4.306934    4.107120   -0.358583
 C         -7.924429    0.180439    0.145019
 C         -8.403364   -1.118408    0.038712
 C         -7.580392   -2.339683   -0.120571
 O         -6.355825   -2.418311   -0.168085
 C         -8.515387   -3.479478   -0.215974
 C         -8.202623   -4.821678   -0.379059
 C         -9.262000   -5.716621   -0.445675
 C        -10.582944   -5.261849   -0.349574
 C        -10.895033   -3.916755   -0.185045
 C         -9.836310   -3.002613   -0.116343
 C         -9.803458   -1.530058    0.052097
 C        -10.938092   -0.731408    0.199779
 C        -12.266141   -1.249428    0.196739
 N        -13.370546   -1.625708    0.200343
 C        -10.920790    0.682128    0.377408
 N        -10.969677    1.838814    0.527251
 H         -8.687808    0.941387    0.244695
 H         -7.176269   -5.164965   -0.452573
 F         -9.045790   -7.029982   -0.603110
 F        -11.568025   -6.167736   -0.420720
 H        -11.938008   -3.639723   -0.118390
 C          7.924424    0.180428   -0.145013
 C          8.403358   -1.118425   -0.038761
 C          7.580390   -2.339709    0.120472
 O          6.355821   -2.418353    0.167894
 C          8.515394   -3.479489    0.215960
 C          8.202637   -4.821690    0.379053
 C          9.262020   -5.716617    0.445757
 C         10.582965   -5.261832    0.349730
 C         10.895048   -3.916737    0.185190
 C          9.836317   -3.002609    0.116403
 C          9.803455   -1.530061   -0.052094
 C         10.938078   -0.731403   -0.199820
 C         12.266139   -1.249393   -0.196684
 N         13.370553   -1.625645   -0.200208
 C         10.920744    0.682109   -0.377631
 N         10.969591    1.838776   -0.527637
 H          8.687809    0.941383   -0.244594
 H          7.176282   -5.164989    0.452503
 F          9.045817   -7.029978    0.603208
 F         11.568052   -6.167705    0.420958
 H         11.938023   -3.639693    0.118595
 N          1.644212    1.315297    0.038757
 N         -1.644222    1.315307   -0.038944
 N         -1.251273    6.061628    0.170622
 N          1.251286    6.061635   -0.170463
 C         -1.463416   -0.043284   -0.554471
 H         -2.339368   -0.306312   -1.150756
 H         -0.593030   -0.074116   -1.209400
 H         -1.351810   -0.773496    0.250927
 C          1.463391   -0.043336    0.554169
 H          1.351761   -0.773475   -0.251292
 H          2.339351   -0.306430    1.150415
 H          0.593018   -0.074212    1.209112
 C          7.598288    3.156440   -0.407679
 H          8.251908    3.143388    0.471743
 H          8.225630    2.936775   -1.278244
 H          7.215735    4.174304   -0.521708
 C         -7.598275    3.156430    0.407910
 H         -8.252113    3.143270   -0.471345
 H         -8.225397    2.936839    1.278656
 H         -7.215719    4.174315    0.521739
 S          0.000009    7.142224    0.000119
