       105
S0: Total Energy = -5280.72034589
 C          6.644788    0.125547    0.049935
 C          6.491814    1.534009   -0.092666
 C          5.137493    1.899485   -0.139031
 C          4.242435    0.822554   -0.008501
 C          2.903104    1.265481   -0.021165
 C          2.787933    2.654320   -0.155344
 C          1.417897    2.971355   -0.122669
 C          0.716224    4.219452   -0.090250
 C         -0.719198    4.219606    0.094931
 S          5.064399   -0.691450    0.191971
 S          4.328290    3.472042   -0.267999
 C         -6.646454    0.124047   -0.039982
 C         -6.494079    1.532991    0.098108
 C         -5.139806    1.898706    0.147497
 C         -4.244246    0.821429    0.023861
 C         -2.904967    1.264635    0.037448
 C         -2.790361    2.654085    0.165507
 C         -1.420404    2.971400    0.133045
 C         -0.717959    1.734878    0.017006
 C          0.715990    1.735144   -0.000314
 S         -5.065500   -0.693199   -0.174215
 S         -4.331099    3.471976    0.271290
 C          7.903620   -0.502474   -0.089469
 C          8.342958   -1.810529    0.037504
 C          7.566885   -2.943344    0.583051
 O          6.376150   -2.971024    0.880706
 C          8.514272   -4.070485    0.741672
 C          8.250486   -5.332760    1.257567
 C          9.309855   -6.225891    1.319219
 C         10.585175   -5.852810    0.874210
 C         10.846235   -4.591822    0.352288
 C          9.785596   -3.680956    0.285738
 C          9.701786   -2.284889   -0.216789
 C         10.731996   -1.621745   -0.864167
 C         12.034466   -2.180034   -1.040294
 N         13.112210   -2.593333   -1.201533
 C         10.609388   -0.333149   -1.468703
 N         10.568030    0.706139   -1.994746
 H          8.667651    0.221556   -0.349991
 H          7.260877   -5.614768    1.600663
 F          9.140530   -7.461969    1.805990
 F         11.572302   -6.754474    0.962799
 H         11.854063   -4.371155    0.028129
 C         -7.905230   -0.504668    0.097458
 C         -8.342831   -1.813247   -0.030688
 C         -7.565643   -2.944418   -0.578349
 O         -6.374068   -2.971811   -0.872531
 C         -8.513370   -4.070229   -0.744637
 C         -8.249098   -5.330242   -1.265798
 C         -9.308941   -6.222298   -1.334519
 C        -10.585180   -5.850483   -0.891050
 C        -10.846704   -4.591877   -0.363637
 C         -9.785614   -3.682095   -0.290108
 C         -9.701873   -2.288836    0.219947
 C        -10.731672   -1.629228    0.871433
 C        -12.035113   -2.186945    1.042059
 N        -13.113587   -2.600076    1.198756
 C        -10.606564   -0.346293    1.487341
 N        -10.562905    0.687652    2.023570
 H         -8.670693    0.218750    0.355861
 H         -7.258789   -5.611361   -1.607596
 F         -9.139203   -7.456115   -1.826848
 F        -11.572694   -6.750998   -0.986656
 H        -11.855198   -4.371963   -0.041006
 N         -1.645087    0.701991   -0.069246
 N          1.643529    0.702937    0.089742
 N          1.251362    5.431991   -0.162394
 N         -1.254813    5.432267    0.161278
 C          1.445933   -0.653596    0.601359
 H          2.296271   -0.912807    1.235527
 H          0.549192   -0.686472    1.219298
 H          1.370327   -1.388286   -0.204614
 C         -1.446338   -0.657400   -0.572663
 H         -1.369939   -1.387091    0.237767
 H         -2.296580   -0.921229   -1.205034
 H         -0.549720   -0.693262   -1.190647
 S         -0.001941    6.509844   -0.003158
 C         -7.606073    2.503704    0.159830
 C         -7.653394    3.469498    1.180573
 C         -8.617674    2.514399   -0.816154
 C         -8.687833    4.399274    1.228059
 H         -6.890157    3.474872    1.953382
 C         -9.644994    3.453035   -0.762694
 H         -8.580863    1.802325   -1.635433
 C         -9.704888    4.406726    0.262293
 H         -8.709867    5.129077    2.033511
 H        -10.410576    3.447831   -1.534560
 C          7.604528    2.503305   -0.164070
 C          7.651871    3.459584   -1.193594
 C          8.618903    2.519524    0.809001
 C          8.690253    4.384356   -1.253478
 H          6.886046    3.460780   -1.963869
 C          9.649757    3.453341    0.743331
 H          8.582047    1.814939    1.634746
 C          9.710684    4.396433   -0.291449
 H          8.712668    5.106363   -2.065901
 H         10.417759    3.452457    1.512820
 C        -10.840655    5.397603    0.339059
 H        -11.654889    5.008807    0.964600
 H        -10.516181    6.345654    0.780323
 H        -11.259755    5.604625   -0.650809
 C         10.851101    5.380803   -0.381772
 H         10.533268    6.321072   -0.843923
 H         11.265628    5.606000    0.606097
 H         11.667166    4.975781   -0.994490
       105
T1: Total Energy = -5280.67399861
 C          6.637978   -0.118873   -0.053357
 C          6.471170   -1.543398    0.047620
 C          5.123323   -1.891323    0.102765
 C          4.225031   -0.803334    0.006072
 C          2.897368   -1.232357    0.016314
 C          2.771184   -2.644059    0.125343
 C          1.421408   -2.953446    0.088541
 C          0.718353   -4.205260    0.067994
 C         -0.718401   -4.205257   -0.068121
 S          5.067758    0.716590   -0.169097
 S          4.310480   -3.469752    0.212813
 C         -6.638019   -0.118868    0.053501
 C         -6.471211   -1.543388   -0.047529
 C         -5.123365   -1.891309   -0.102764
 C         -4.225066   -0.803323   -0.006074
 C         -2.897404   -1.232345   -0.016389
 C         -2.771222   -2.644047   -0.125457
 C         -1.421450   -2.953439   -0.088666
 C         -0.702351   -1.698071    0.008354
 C          0.702316   -1.698076   -0.008472
 S         -5.067790    0.716592    0.169197
 S         -4.310525   -3.469735   -0.212895
 C          7.902591    0.490245    0.078219
 C          8.349125    1.808066   -0.019362
 C          7.568689    2.958897   -0.527274
 O          6.376735    2.989918   -0.820814
 C          8.508740    4.095746   -0.645132
 C          8.239685    5.375974   -1.109020
 C          9.295640    6.276909   -1.132876
 C         10.569490    5.890954   -0.699874
 C         10.835793    4.609242   -0.228822
 C          9.780830    3.691361   -0.202899
 C          9.700165    2.274853    0.241573
 C         10.743994    1.581987    0.850581
 C         12.050526    2.128034    1.018460
 N         13.134367    2.531259    1.170404
 C         10.628150    0.278853    1.419226
 N         10.596758   -0.774318    1.919588
 H          8.666809   -0.244429    0.303941
 H          7.249148    5.667741   -1.441257
 F          9.120284    7.531786   -1.570462
 F         11.554374    6.799006   -0.746802
 H         11.843606    4.381384    0.090307
 C         -7.902622    0.490255   -0.078081
 C         -8.349129    1.808095    0.019435
 C         -7.568687    2.958929    0.527334
 O         -6.376737    2.989950    0.820892
 C         -8.508729    4.095793    0.645142
 C         -8.239666    5.376031    1.108998
 C         -9.295614    6.276975    1.132816
 C        -10.569467    5.891015    0.699821
 C        -10.835776    4.609292    0.228803
 C         -9.780817    3.691408    0.202908
 C         -9.700158    2.274885   -0.241510
 C        -10.743984    1.582018   -0.850517
 C        -12.050503    2.128084   -1.018455
 N        -13.134323    2.531338   -1.170469
 C        -10.628146    0.278860   -1.419113
 N        -10.596754   -0.774319   -1.919458
 H         -8.666853   -0.244410   -0.303793
 H         -7.249129    5.667799    1.441232
 F         -9.120253    7.531864    1.570366
 F        -11.554348    6.799072    0.746727
 H        -11.843593    4.381427   -0.090318
 N         -1.645060   -0.664241    0.081925
 N          1.645030   -0.664243   -0.082013
 N          1.257177   -5.414521    0.120461
 N         -1.257228   -5.414515   -0.120611
 C          1.452530    0.698211   -0.581334
 H          2.312033    0.966404   -1.198954
 H          0.565306    0.735903   -1.212896
 H          1.362532    1.422245    0.232562
 C         -1.452538    0.698234    0.581179
 H         -1.362505    1.422223   -0.232753
 H         -2.312046    0.966478    1.198768
 H         -0.565329    0.735939    1.212762
 S         -0.000028   -6.496337   -0.000076
 C         -7.576549   -2.524877   -0.068911
 C         -7.638039   -3.511083   -1.068291
 C         -8.562009   -2.530706    0.933703
 C         -8.655235   -4.462199   -1.065272
 H         -6.898378   -3.518849   -1.863957
 C         -9.573653   -3.487194    0.928966
 H         -8.518818   -1.797039    1.733528
 C         -9.644101   -4.466233   -0.071857
 H         -8.686209   -5.209713   -1.854100
 H        -10.319144   -3.476525    1.720337
 C          7.576532   -2.524854    0.068985
 C          7.638069   -3.511052    1.068368
 C          8.562000   -2.530625   -0.933622
 C          8.655322   -4.462111    1.065354
 H          6.898390   -3.518871    1.864017
 C          9.573687   -3.487064   -0.928888
 H          8.518771   -1.796954   -1.733442
 C          9.644189   -4.466093    0.071945
 H          8.686336   -5.209625    1.854180
 H         10.319180   -3.476357   -1.720257
 C        -10.764733   -5.477154   -0.093778
 H        -11.618470   -5.100646   -0.672455
 H        -10.447410   -6.417456   -0.556167
 H        -11.127006   -5.695871    0.915999
 C         10.764892   -5.476936    0.093877
 H         10.447784   -6.417079    0.556733
 H         11.126842   -5.696018   -0.915939
 H         11.618801   -5.100147    0.672115
       105
S1: Total Energy = -5280.65856313
 C          6.640332   -0.121283   -0.032255
 C          6.478994   -1.536449    0.078858
 C          5.123858   -1.889764    0.131937
 C          4.231115   -0.805200    0.026708
 C          2.897062   -1.238897    0.031782
 C          2.773978   -2.644735    0.144742
 C          1.420097   -2.955308    0.101969
 C          0.717653   -4.205885    0.075821
 C         -0.717686   -4.205881   -0.076235
 S          5.069331    0.712178   -0.153506
 S          4.313950   -3.467431    0.241994
 C         -6.640296   -0.121199    0.031997
 C         -6.478977   -1.536376   -0.079008
 C         -5.123854   -1.889703   -0.132257
 C         -4.231087   -0.805136   -0.027274
 C         -2.897040   -1.238849   -0.032450
 C         -2.773985   -2.644703   -0.145251
 C         -1.420107   -2.955294   -0.102519
 C         -0.704846   -1.702209    0.001646
 C          0.704862   -1.702222   -0.002379
 S         -5.069268    0.712268    0.152892
 S         -4.313978   -3.467392   -0.242247
 C          7.908766    0.496704    0.103502
 C          8.352688    1.807161   -0.014185
 C          7.570133    2.949933   -0.539889
 O          6.377232    2.975146   -0.830270
 C          8.509384    4.083543   -0.678483
 C          8.238756    5.355131   -1.164120
 C          9.293539    6.257278   -1.203615
 C         10.568121    5.880299   -0.763187
 C         10.836884    4.607952   -0.270020
 C          9.783097    3.687072   -0.228109
 C          9.707492    2.282640    0.239851
 C         10.752609    1.599254    0.859547
 C         12.058206    2.148786    1.018689
 N         13.141863    2.556173    1.164005
 C         10.638706    0.304701    1.446068
 N         10.608010   -0.742701    1.959529
 H          8.669611   -0.233720    0.354249
 H          7.247698    5.639552   -1.501192
 F          9.116729    7.504182   -1.663140
 F         11.551039    6.789491   -0.825708
 H         11.844848    4.387238    0.053591
 C         -7.908768    0.496760   -0.103529
 C         -8.352699    1.807215    0.014168
 C         -7.570074    2.950052    0.539628
 O         -6.377096    2.975354    0.829687
 C         -8.509343    4.083628    0.678378
 C         -8.238663    5.355251    1.163895
 C         -9.293479    6.257352    1.203585
 C        -10.568142    5.880296    0.763456
 C        -10.836961    4.607909    0.270422
 C         -9.783142    3.687076    0.228323
 C         -9.707586    2.282620   -0.239565
 C        -10.752815    1.599166   -0.858988
 C        -12.058467    2.148649   -1.017853
 N        -13.142165    2.556014   -1.162928
 C        -10.638989    0.304605   -1.445510
 N        -10.608347   -0.742803   -1.958962
 H         -8.669653   -0.233700   -0.354047
 H         -7.247542    5.639733    1.500727
 F         -9.116623    7.504285    1.663012
 F        -11.551087    6.789446    0.826151
 H        -11.844990    4.387130   -0.052944
 N         -1.646002   -0.670188    0.073554
 N          1.646042   -0.670230   -0.074377
 N          1.255694   -5.415984    0.134155
 N         -1.255750   -5.415977   -0.134418
 C          1.457461    0.696258   -0.564901
 H          2.322444    0.968272   -1.172814
 H          0.576130    0.738381   -1.204126
 H          1.361081    1.413680    0.253919
 C         -1.457374    0.696332    0.563974
 H         -1.360996    1.413690   -0.254902
 H         -2.322334    0.968414    1.171890
 H         -0.576026    0.738481    1.203174
 S         -0.000038   -6.496537   -0.000068
 C         -7.582180   -2.518829   -0.105360
 C         -7.631889   -3.512276   -1.098903
 C         -8.578429   -2.519046    0.886594
 C         -8.648706   -4.463193   -1.101162
 H         -6.883933   -3.524933   -1.886686
 C         -9.589562   -3.476172    0.876896
 H         -8.543002   -1.781544    1.683185
 C         -9.648574   -4.461458   -0.118219
 H         -8.670941   -5.215683   -1.885543
 H        -10.343326   -3.461141    1.660242
 C          7.582195   -2.518890    0.105553
 C          7.631744   -3.512162    1.099220
 C          8.578664   -2.519226   -0.886241
 C          8.648644   -4.463052    1.101827
 H          6.883634   -3.524759    1.886858
 C          9.589814   -3.476266   -0.876197
 H          8.543329   -1.781856   -1.682959
 C          9.648694   -4.461404    0.119141
 H          8.670755   -5.215425    1.886313
 H         10.343720   -3.461338   -1.659417
 C        -10.767511   -5.473941   -0.146207
 H        -11.603133   -5.114482   -0.761037
 H        -10.435978   -6.426206   -0.572967
 H        -11.160117   -5.665295    0.857654
 C         10.767857   -5.473630    0.147374
 H         10.439261   -6.422614    0.583525
 H         11.153816   -5.672564   -0.857623
 H         11.607604   -5.109404    0.753724
