        99
S0: Total Energy = -5922.23294733
 C          6.644235   -0.109957   -0.138154
 C          6.497132   -1.524630   -0.006903
 C          5.140807   -1.894726    0.070986
 C          4.245597   -0.817606   -0.040258
 C          2.905039   -1.258025   -0.009721
 C          2.790442   -2.646152    0.122738
 C          1.419984   -2.962673    0.109338
 C          0.718703   -4.210901    0.082920
 C         -0.718762   -4.210900   -0.083050
 S          5.060303    0.697837   -0.265913
 S          4.330787   -3.466150    0.207515
 C         -6.644305   -0.109976    0.138186
 C         -6.497205   -1.524643    0.006877
 C         -5.140881   -1.894748   -0.071008
 C         -4.245672   -0.817629    0.040286
 C         -2.905115   -1.258040    0.009751
 C         -2.790508   -2.646157   -0.122782
 C         -1.420049   -2.962673   -0.109394
 C         -0.717304   -1.726033    0.000440
 C          0.717232   -1.726031   -0.000444
 S         -5.060377    0.697811    0.265949
 S         -4.330848   -3.466158   -0.207616
 C          7.893315    0.529583    0.022145
 C          8.317739    1.843215   -0.109649
 C          7.543855    2.952227   -0.704372
 O          6.366046    2.952045   -1.051295
 C          8.475094    4.095452   -0.841661
 C          8.207580    5.345779   -1.383908
 C          9.250603    6.259640   -1.413537
 C         10.513457    5.918033   -0.911725
 C         10.778000    4.668623   -0.364160
 C          9.734142    3.736883   -0.329966
 C          9.657869    2.344426    0.184938
 C         10.680218    1.706131    0.869455
 C         11.966118    2.290173    1.080256
 N         13.030941    2.724061    1.270898
 C         10.567095    0.418829    1.478467
 N         10.538426   -0.617914    2.010420
 H          8.658048   -0.182964    0.311456
 H          7.227330    5.603483   -1.770291
 F          9.076771    7.486327   -1.922148
 F         11.485133    6.838856   -0.970198
 H         11.775780    4.472827    0.003941
 C         -7.893378    0.529589   -0.022111
 C         -8.317747    1.843233    0.109697
 C         -7.543789    2.952206    0.704401
 O         -6.365932    2.951996    1.051163
 C         -8.474933    4.095517    0.841611
 C         -8.207313    5.345870    1.383752
 C         -9.250275    6.259801    1.413353
 C        -10.513176    5.918233    0.911629
 C        -10.777826    4.668799    0.364170
 C         -9.734027    3.736993    0.329996
 C         -9.657875    2.344491   -0.184805
 C        -10.680305    1.706216   -0.869221
 C        -11.966169    2.290338   -1.080009
 N        -13.030949    2.724346   -1.270615
 C        -10.567293    0.418869   -1.478171
 N        -10.538682   -0.617900   -2.010079
 H         -8.658134   -0.182931   -0.311425
 H         -7.227030    5.603533    1.770078
 F         -9.076345    7.486520    1.921851
 F        -11.484788    6.839127    0.970081
 H        -11.775639    4.473031   -0.003856
 N         -1.644397   -0.694152    0.101337
 N          1.644319   -0.694142   -0.101294
 N          1.255141   -5.423476    0.144680
 N         -1.255197   -5.423472   -0.144878
 C          1.439469    0.664334   -0.604779
 H          2.279582    0.925649   -1.251584
 H          0.533089    0.699913   -1.208306
 H          1.376885    1.395986    0.205067
 C         -1.439547    0.664279    0.604941
 H         -1.377002    1.396004   -0.204842
 H         -2.279641    0.925528    1.251801
 H         -0.533143    0.699810    1.208432
 S         -0.000027   -6.501125   -0.000127
 C         -7.613212   -2.458618   -0.008328
 C         -8.726058   -2.470967    0.807035
 S         -7.671415   -3.815767   -1.125011
 C         -9.612032   -3.548682    0.540492
 H         -8.879145   -1.748725    1.601202
 C         -9.193324   -4.371146   -0.475650
 H        -10.533580   -3.717968    1.087223
 C          7.613137   -2.458605    0.008309
 C          8.726023   -2.470937   -0.807000
 S          7.671309   -3.815759    1.124990
 C          9.611979   -3.548656   -0.540440
 H          8.879134   -1.748676   -1.601145
 C          9.193231   -4.371131    0.475681
 H         10.533554   -3.717938   -1.087128
 C         -9.876563   -5.583603   -1.031674
 H         -9.249395   -6.478824   -0.947504
 H        -10.805381   -5.766002   -0.483417
 H        -10.128418   -5.455595   -2.090929
 C          9.876456   -5.583589    1.031721
 H          9.249258   -6.478794    0.947618
 H         10.805244   -5.766039    0.483430
 H         10.128365   -5.455541    2.090959
        99
T1: Total Energy = -5922.18630116
 C          6.630629   -0.107350   -0.147775
 C          6.474931   -1.538475   -0.045872
 C          5.125308   -1.895316    0.034284
 C          4.224923   -0.811118   -0.054311
 C          2.896595   -1.240431   -0.023765
 C          2.773234   -2.650014    0.093599
 C          1.422375   -2.961211    0.074058
 C          0.719106   -4.212831    0.061547
 C         -0.719081   -4.212832   -0.061348
 S          5.054537    0.712009   -0.263417
 S          4.314247   -3.473274    0.163357
 C         -6.630623   -0.107361    0.147835
 C         -6.474919   -1.538484    0.045897
 C         -5.125291   -1.895325   -0.034164
 C         -4.224911   -0.811130    0.054515
 C         -2.896581   -1.240441    0.024009
 C         -2.773213   -2.650020   -0.093396
 C         -1.422354   -2.961214   -0.073828
 C         -0.702736   -1.707363    0.017564
 C          0.702752   -1.707360   -0.017282
 S         -5.054536    0.711989    0.263628
 S         -4.314222   -3.473281   -0.163220
 C          7.882815    0.519979   -0.003249
 C          8.308831    1.844741   -0.112744
 C          7.525409    2.968766   -0.673048
 O          6.345101    2.968796   -1.012118
 C          8.446155    4.122465   -0.779144
 C          8.168776    5.387764   -1.277722
 C          9.206589    6.309879   -1.280501
 C         10.471020    5.958684   -0.793796
 C         10.745477    4.691720   -0.288634
 C          9.708896    3.752867   -0.283180
 C          9.640888    2.342529    0.183359
 C         10.678910    1.680580    0.835519
 C         11.966342    2.258187    1.041039
 N         13.034985    2.687603    1.225456
 C         10.575545    0.379919    1.411951
 N         10.555789   -0.670661    1.918316
 H          8.652599   -0.199050    0.251742
 H          7.185570    5.652488   -1.651772
 F          9.022361    7.552420   -1.748548
 F         11.438501    6.886021   -0.822220
 H         11.745265    4.490894    0.071232
 C         -7.882796    0.519972    0.003223
 C         -8.308834    1.844728    0.112718
 C         -7.525466    2.968758    0.673089
 O         -6.345174    2.968812    1.012211
 C         -8.446241    4.122438    0.779150
 C         -8.168908    5.387737    1.277754
 C         -9.206739    6.309832    1.280492
 C        -10.471139    5.958618    0.793723
 C        -10.745549    4.691655    0.288535
 C         -9.708950    3.752821    0.283120
 C         -9.640886    2.342494   -0.183444
 C        -10.678850    1.680531   -0.835681
 C        -11.966299    2.258086   -1.041237
 N        -13.034959    2.687448   -1.225680
 C        -10.575393    0.379903   -1.412171
 N        -10.555536   -0.670653   -1.918582
 H         -8.652556   -0.199053   -0.251857
 H         -7.185726    5.652476    1.651855
 F         -9.022556    7.552373    1.748560
 F        -11.438640    6.885937    0.822109
 H        -11.745315    4.490817   -0.071385
 N         -1.642697   -0.673167    0.108126
 N          1.642708   -0.673157   -0.107823
 N          1.258220   -5.422274    0.108848
 N         -1.258190   -5.422275   -0.108699
 C          1.440393    0.686480   -0.611431
 H          2.284716    0.949530   -1.251818
 H          0.537981    0.721273   -1.221171
 H          1.370937    1.415620    0.199874
 C         -1.440397    0.686456    0.611778
 H         -1.370915    1.415617   -0.199506
 H         -2.284739    0.949490    1.252147
 H         -0.538004    0.721232    1.221546
 S          0.000017   -6.503709    0.000056
 C         -7.587853   -2.478538    0.050837
 C         -8.693561   -2.493068    0.874367
 S         -7.647061   -3.846959   -1.053918
 C         -9.570813   -3.584207    0.629213
 H         -8.851885   -1.759675    1.657310
 C         -9.154234   -4.415462   -0.379551
 H        -10.485905   -3.754922    1.186459
 C          7.587865   -2.478527   -0.050945
 C          8.693509   -2.493008   -0.874562
 S          7.647165   -3.847002    1.053737
 C          9.570787   -3.584154   -0.629530
 H          8.851769   -1.759574   -1.657479
 C          9.154291   -4.415461    0.379226
 H         10.485835   -3.754838   -1.186856
 C         -9.828206   -5.643418   -0.912698
 H         -9.187979   -6.529419   -0.828043
 H        -10.746310   -5.832590   -0.348708
 H        -10.098006   -5.531232   -1.969415
 C          9.828312   -5.643439    0.912260
 H          9.188075   -6.529435    0.827634
 H         10.746361   -5.832591    0.348174
 H         10.098215   -5.531293    1.968955
        99
S1: Total Energy = -5922.17118684
 C          6.633173   -0.108387   -0.123597
 C          6.482099   -1.529775   -0.010793
 C          5.125185   -1.891483    0.066763
 C          4.230456   -0.809976   -0.031895
 C          2.896128   -1.243796   -0.007418
 C          2.775395   -2.648311    0.113884
 C          1.421236   -2.960495    0.087626
 C          0.718364   -4.211073    0.069467
 C         -0.718393   -4.211076   -0.069524
 S          5.056496    0.710030   -0.247615
 S          4.317143   -3.468907    0.195401
 C         -6.633216   -0.108414    0.123596
 C         -6.482139   -1.529806    0.010821
 C         -5.125224   -1.891506   -0.066762
 C         -4.230498   -0.809997    0.031891
 C         -2.896169   -1.243810    0.007384
 C         -2.775430   -2.648323   -0.113922
 C         -1.421270   -2.960501   -0.087682
 C         -0.704760   -1.708112    0.011287
 C          0.704722   -1.708108   -0.011339
 S         -5.056541    0.710000    0.247660
 S         -4.317177   -3.468927   -0.195396
 C          7.888536    0.526525    0.027580
 C          8.315008    1.842818   -0.105898
 C          7.533622    2.956095   -0.691388
 O          6.353468    2.950257   -1.031528
 C          8.455925    4.105114   -0.819644
 C          8.181561    5.358940   -1.347336
 C          9.220251    6.280352   -1.367206
 C         10.482771    5.939032   -0.867581
 C         10.754946    4.684109   -0.332910
 C          9.717473    3.744646   -0.309496
 C          9.649776    2.348608    0.186580
 C         10.685532    1.698224    0.855799
 C         11.970823    2.280247    1.058956
 N         13.038132    2.714506    1.242401
 C         10.581039    0.406593    1.450481
 N         10.558913   -0.638298    1.969465
 H          8.652406   -0.188009    0.312539
 H          7.199878    5.615645   -1.730897
 F          9.038822    7.512191   -1.864150
 F         11.450664    6.865293   -0.913655
 H         11.753147    4.490734    0.035311
 C         -7.888567    0.526513   -0.027619
 C         -8.315016    1.842815    0.105858
 C         -7.533621    2.956054    0.691405
 O         -6.353480    2.950173    1.031593
 C         -8.455907    4.105083    0.819700
 C         -8.181538    5.358872    1.347476
 C         -9.220212    6.280300    1.367368
 C        -10.482721    5.939033    0.867680
 C        -10.754902    4.684147    0.332926
 C         -9.717445    3.744666    0.309493
 C         -9.649756    2.348658   -0.186670
 C        -10.685493    1.698365   -0.856009
 C        -11.970741    2.280466   -1.059215
 N        -13.038013    2.714796   -1.242708
 C        -10.581005    0.406805   -1.450844
 N        -10.558904   -0.638018   -1.969965
 H         -8.652435   -0.188003   -0.312622
 H         -7.199863    5.615536    1.731085
 F         -9.038778    7.512107    1.864390
 F        -11.450599    6.865309    0.913774
 H        -11.753092    4.490812   -0.035342
 N         -1.643789   -0.675825    0.099669
 N          1.643747   -0.675816   -0.099705
 N          1.256792   -5.421164    0.122644
 N         -1.256815   -5.421169   -0.122708
 C          1.445694    0.687987   -0.594573
 H          2.295759    0.954944   -1.225367
 H          0.548987    0.727138   -1.212123
 H          1.369897    1.410414    0.221967
 C         -1.445738    0.687971    0.594558
 H         -1.369936    1.410409   -0.221972
 H         -2.295807    0.954921    1.225352
 H         -0.549036    0.727114    1.212114
 S         -0.000010   -6.501559   -0.000029
 C         -7.593043   -2.470392    0.010532
 C         -8.706603   -2.480329    0.824394
 S         -7.643988   -3.843122   -1.089667
 C         -9.583588   -3.569926    0.574339
 H         -8.869146   -1.745357    1.604917
 C         -9.158892   -4.405618   -0.427699
 H        -10.503811   -3.737582    1.123935
 C          7.593020   -2.470340   -0.010462
 C          8.706613   -2.480247   -0.824278
 S          7.643970   -3.843050    1.089762
 C          9.583622   -3.569814   -0.574178
 H          8.869166   -1.745273   -1.604797
 C          9.158914   -4.405509    0.427854
 H         10.503871   -3.737448   -1.123737
 C         -9.830015   -5.634247   -0.962534
 H         -9.192189   -6.521028   -0.868428
 H        -10.753908   -5.819498   -0.406807
 H        -10.089251   -5.525407   -2.022241
 C          9.830058   -5.634108    0.962731
 H          9.192250   -6.520904    0.868648
 H         10.753959   -5.819358    0.407017
 H         10.089284   -5.525229    2.022437
