       155
S0: Total Energy = -5113.39809674
 O          9.366730    0.435866   -4.599162
 O         10.969850   -3.674754   -3.360430
 C          9.148552   -0.639811   -4.057474
 C          7.835065   -0.983888   -3.462778
 C          6.760071   -0.098352   -3.480345
 H          6.900661    0.871538   -3.946154
 C          5.502293   -0.428781   -2.911203
 H          4.689673    0.289887   -2.944101
 C          5.341658   -1.671749   -2.321304
 C          6.164584   -3.801914   -1.677127
 C          6.440120   -2.564553   -2.307496
 C          7.680038   -2.253158   -2.861294
 C          8.700688   -3.227311   -2.783714
 C         10.020177   -2.902460   -3.371937
 C          7.171094   -4.750589   -1.604111
 H          7.006837   -5.712381   -1.128975
 C          8.439629   -4.447163   -2.164957
 H          9.238279   -5.180159   -2.115613
 N         10.150056   -1.631393   -3.966778
 C         11.468646   -1.333822   -4.542276
 H         12.232365   -1.379746   -3.762389
 H         11.711692   -2.071575   -5.310234
 H         11.427027   -0.336803   -4.973110
 O         -6.531757   -8.040900    4.597483
 O         -8.135389   -3.936377    3.339535
 C         -6.313701   -6.968405    4.049461
 C         -5.001693   -6.628566    3.449446
 C         -3.926669   -7.513998    3.470057
 H         -4.065859   -8.480737    3.942777
 C         -2.670216   -7.187528    2.895503
 H         -1.857128   -7.905411    2.931894
 C         -2.511393   -5.948833    2.296509
 C         -3.335666   -3.822649    1.640781
 C         -3.609747   -5.055956    2.279614
 C         -4.848000   -5.363172    2.839361
 C         -5.868051   -4.388670    2.759241
 C         -7.185906   -4.708996    3.353547
 C         -4.341294   -2.873020    1.566098
 H         -4.176696   -1.913427    1.086676
 C         -5.608010   -3.172327    2.132963
 H         -6.406141   -2.438780    2.083246
 N         -7.314881   -5.976389    3.956071
 C         -8.631803   -6.269520    4.537531
 H         -8.871755   -5.527126    5.301984
 H         -9.398126   -6.227473    3.759961
 H         -8.589558   -7.264035    4.974062
 C          4.251080   -2.393773   -1.642803
 C          2.231485   -2.906482   -0.729203
 C          2.733669   -4.205686   -0.333438
 C          4.759270   -3.707875   -1.244949
 C          0.905685   -2.519015   -0.425224
 C          1.917836   -5.114979    0.377597
 C          0.595386   -4.724041    0.687564
 C          0.089922   -3.428949    0.285366
 C         -1.931949   -3.919844    1.205103
 C         -1.422670   -5.231353    1.610392
 N          4.033167   -4.579792   -0.608389
 N          3.035932   -2.001989   -1.390765
 N         -0.208731   -5.624690    1.356164
 N         -1.208201   -3.052961    0.558681
 C          2.438034   -6.447871    0.790372
 C          2.902103   -7.363275   -0.166759
 C          2.473748   -6.813330    2.144883
 C          3.382510   -8.613976    0.220020
 H          2.878563   -7.094579   -1.218109
 C          2.966580   -8.058950    2.532339
 H          2.120284   -6.114089    2.896020
 C          3.419604   -8.965057    1.571150
 H          3.729856   -9.313582   -0.535577
 H          2.994525   -8.321742    3.586453
 H          3.798903   -9.937714    1.872821
 C          0.400218   -1.190177   -0.825261
 C          0.234481   -0.680059   -2.092879
 S         -0.000951   -0.000713    0.389591
 C         -0.235653    0.679947   -2.092596
 C         -0.401879    1.189357   -0.824715
 C         -0.906523    2.518433   -0.424130
 C         -0.090033    3.427651    0.286551
 C         -2.232006    2.906859   -0.727898
 C         -0.594324    4.723300    0.688567
 N          1.207574    3.050472    0.560231
 C         -2.733152    4.206445   -0.332037
 N         -3.037182    2.002997   -1.389465
 C         -1.916379    5.115385    0.378346
 N          0.210460    5.623209    1.357191
 C          1.931965    3.916696    1.206843
 N         -4.032628    4.581290   -0.606324
 C         -4.252146    2.395503   -1.640972
 C         -2.435160    6.449245    0.789835
 C          1.423997    5.228725    1.611872
 C          3.335412    3.818041    1.643055
 C         -4.759517    3.709818   -1.242574
 C         -5.343393    1.674202   -2.319200
 C         -2.471049    6.816044    2.143942
 C         -2.897766    7.364258   -0.168411
 C          2.513222    5.945226    2.298218
 C          4.340297    2.867599    1.569223
 C          3.610700    5.051022    2.281681
 C         -6.164958    3.804636   -1.674138
 C         -6.441383    2.567564   -2.304683
 C         -5.504890    0.431498   -2.909419
 C         -2.962614    8.062633    2.529977
 H         -2.118681    6.117143    2.895912
 C         -3.376892    8.615879    0.216936
 H         -2.874020    7.094513   -1.219498
 C          2.672722    7.183899    2.897134
 C          5.606933    3.165986    2.136485
 H          4.175210    1.907914    1.090168
 C          4.849068    5.357180    2.841722
 C         -7.170900    4.753882   -1.600624
 C         -7.681695    2.256956   -2.858058
 H         -4.692654   -0.287577   -2.942886
 C         -6.763060    0.101903   -3.478193
 C         -3.414175    8.968313    1.567719
 H         -2.990717    8.326486    3.583821
 H         -3.723116    9.315150   -0.539488
 H          1.860102    7.902340    2.933088
 C          3.929313    7.509458    3.472203
 C          5.869009    4.382283    2.762643
 H          6.404078    2.431479    2.087163
 C          5.002743    6.622586    3.451402
 C         -8.439777    4.451302   -2.161138
 H         -7.005913    5.715500   -1.125391
 C         -8.701760    3.231669   -2.779940
 C         -7.837618    0.987951   -3.459875
 H         -6.904276   -0.867741   -3.944318
 H         -3.792493    9.941698    1.868275
 H          4.069570    8.476045    3.945125
 C          7.191358    4.693968    3.355288
 C          6.316657    6.953023    4.048833
 H         -9.237940    5.184809   -2.111537
 C        -10.021559    2.907768   -3.368004
 C         -9.151504    0.644727   -4.054195
 O          8.127707    3.905990    3.332727
 N          7.318050    5.965709    3.956597
 O          6.554883    8.018988    4.601525
 O        -10.970411    3.681073   -3.357130
 N        -10.153081    1.636004   -3.960975
 O         -9.370201   -0.430355   -4.596841
 C          8.611995    6.318841    4.556113
 C        -11.472448    1.338835   -4.534888
 H          9.006370    7.219440    4.080142
 H          8.484790    6.517224    5.622946
 H          9.288823    5.481931    4.404710
 H        -11.708431    2.064597   -5.316601
 H        -11.437455    0.334336   -4.948597
 H        -12.237089    1.404730   -3.757574
 C          0.494408   -1.443886   -3.362952
 H          1.390130   -1.071166   -3.876237
 H          0.646565   -2.508199   -3.167367
 H         -0.345036   -1.346714   -4.061789
 C         -0.494650    1.444505   -3.362430
 H         -0.648963    2.508377   -3.166159
 H          0.346259    1.349400   -4.059808
 H         -1.388687    1.070676   -3.877829
       155
T1: Total Energy = -5113.34562454
 O          8.711279   -2.729385    5.641279
 O         11.395083    0.847300    4.640625
 C          8.831974   -1.656075    5.064158
 C          7.740415   -1.047455    4.269157
 C          6.498927   -1.660000    4.120672
 H          6.335642   -2.616085    4.607423
 C          5.454125   -1.074156    3.355877
 H          4.503965   -1.590903    3.262920
 C          5.676616    0.147346    2.739130
 C          7.055604    1.995020    2.218375
 C          6.945642    0.757748    2.898698
 C          7.976609    0.198063    3.640590
 C          9.197961    0.908333    3.717324
 C         10.299855    0.316118    4.507485
 C          8.255214    2.683396    2.295842
 H          8.395419    3.634257    1.791382
 C          9.321356    2.125170    3.053343
 H         10.265595    2.655885    3.121295
 N         10.039111   -0.924564    5.125224
 C         11.149605   -1.490178    5.902599
 H         12.014510   -1.647499    5.253886
 H         11.434868   -0.798877    6.699017
 H         10.814767   -2.435108    6.322822
 O         -2.534674    7.776127   -7.453021
 O         -5.148309    4.132175   -6.511109
 C         -2.688154    6.756642   -6.792432
 C         -1.707878    6.304616   -5.777564
 C         -0.541283    7.012894   -5.504593
 H         -0.351410    7.926261   -6.058977
 C          0.396293    6.575744   -4.528810
 H          1.293125    7.159507   -4.346465
 C          0.139489    5.408827   -3.829110
 C         -1.200775    3.525282   -3.334818
 C         -1.050107    4.699103   -4.117669
 C         -1.975949    5.111603   -5.065740
 C         -3.129141    4.313688   -5.256825
 C         -4.118362    4.748438   -6.266012
 C         -2.335612    2.751049   -3.527262
 H         -2.505647    1.844483   -2.955050
 C         -3.292049    3.159434   -4.495114
 H         -4.182826    2.560081   -4.653854
 N         -3.827817    5.939409   -6.963616
 C         -4.826066    6.348953   -7.959968
 H         -4.945052    5.563578   -8.709939
 H         -5.790728    6.512984   -7.473830
 H         -4.475575    7.267023   -8.424622
 C          4.911951    1.077112    1.893994
 C          3.204705    1.996183    0.697855
 C          4.064608    3.097333    0.331099
 C          5.745366    2.190182    1.573947
 C          1.848487    1.932451    0.194992
 C          3.614329    4.101019   -0.597082
 C          2.349795    3.925053   -1.247278
 C          1.493506    2.813694   -0.900319
 C         -0.009836    3.485288   -2.479701
 C          0.807368    4.615781   -2.779030
 N          5.338658    3.181403    0.792772
 N          3.660199    0.972920    1.457890
 N          1.962402    4.843852   -2.173649
 N          0.323361    2.606078   -1.534524
 C          4.471825    5.262911   -0.901159
 C          5.025255    6.028609    0.145272
 C          4.760976    5.641075   -2.227335
 C          5.819339    7.139409   -0.124457
 H          4.811862    5.756618    1.172875
 C          5.577929    6.737027   -2.493898
 H          4.356459    5.059582   -3.046818
 C          6.104468    7.495580   -1.445478
 H          6.220001    7.726108    0.697703
 H          5.802485    7.000654   -3.523862
 H          6.733292    8.356494   -1.655773
 C          0.911415    0.983331    0.721652
 C          0.773291    0.527472    2.056911
 S         -0.261550    0.158792   -0.315550
 C         -0.173407   -0.515005    2.198778
 C         -0.788350   -0.852695    0.996564
 C         -1.847676   -1.855940    0.772555
 C         -1.617446   -2.981868   -0.047244
 C         -3.124189   -1.691047    1.353605
 C         -2.664256   -3.952304   -0.279381
 N         -0.358504   -3.138684   -0.587247
 C         -4.172714   -2.659006    1.116769
 N         -3.343557   -0.566624    2.121599
 C         -3.944650   -3.791433    0.299995
 N         -2.432076   -5.074046   -1.047861
 C         -0.181194   -4.198881   -1.321368
 N         -5.431900   -2.483794    1.651549
 C         -4.540110   -0.440993    2.619367
 C         -5.024185   -4.785758    0.053555
 C         -1.238302   -5.186660   -1.553580
 C          1.027949   -4.652299   -2.028646
 C         -5.604572   -1.418199    2.378317
 C         -5.091137    0.631588    3.464904
 C         -5.450640   -5.068397   -1.253582
 C         -5.635476   -5.459070    1.122682
 C         -0.682866   -6.253682   -2.403342
 C          2.320358   -4.184099   -2.199111
 C          0.658277   -5.871170   -2.646183
 C         -6.815684   -0.950818    3.073976
 C         -6.438393    0.263670    3.695707
 C         -4.617445    1.807569    4.023026
 C         -6.467292   -5.994238   -1.484411
 H         -4.988828   -4.552920   -2.089539
 C         -6.641829   -6.395648    0.889975
 H         -5.313513   -5.252653    2.138338
 C         -1.150621   -7.432694   -2.959594
 C          3.224840   -4.944345   -2.986098
 H          2.648960   -3.254543   -1.745593
 C          1.535545   -6.627012   -3.420788
 C         -8.115001   -1.403875    3.230867
 C         -7.315036    1.029804    4.460891
 H         -3.593570    2.133505    3.870630
 C         -5.499223    2.597191    4.806550
 C         -7.063829   -6.663861   -0.413925
 H         -6.791663   -6.193604   -2.502179
 H         -7.097648   -6.914516    1.728930
 H         -2.170936   -7.766332   -2.800291
 C         -0.267883   -8.212526   -3.752326
 C          2.852352   -6.143051   -3.589749
 H          4.240553   -4.590412   -3.128709
 C          1.049963   -7.827929   -3.985069
 C         -9.019032   -0.633855    4.009286
 H         -8.449952   -2.328251    2.771421
 C         -8.638552    0.559984    4.616538
 C         -6.823231    2.226546    5.028680
 H         -5.142534    3.520818    5.250358
 H         -7.852202   -7.389561   -0.594605
 H         -0.619414   -9.138553   -4.195487
 C          3.796836   -6.938097   -4.411218
 C          1.977831   -8.635238   -4.810163
 H        -10.040464   -0.975703    4.140927
 C         -9.574753    1.370744    5.428954
 C         -7.745023    3.051523    5.846363
 O          4.954207   -6.592107   -4.606628
 N          3.284936   -8.132273   -4.964867
 O          1.657828   -9.689038   -5.344198
 O        -10.739951    1.053415    5.627491
 N         -9.061244    2.559699    5.984643
 O         -7.398516    4.098876    6.376036
 C          4.184785   -8.951420   -5.788352
 C        -10.010381    3.345706    6.784861
 H          4.286058   -9.946293   -5.348640
 H          3.772324   -9.056568   -6.794413
 H          5.149829   -8.452712   -5.824494
 H        -10.359435    2.753398    7.634017
 H         -9.495298    4.237624    7.132114
 H        -10.873088    3.616708    6.172358
 C          1.420954    1.147895    3.264030
 H          2.230949    0.523717    3.657186
 H          1.838234    2.131500    3.044523
 H          0.677698    1.266896    4.061204
 C         -0.477285   -1.174213    3.516401
 H         -1.022279   -2.110596    3.375549
 H          0.441969   -1.397108    4.068858
 H         -1.094956   -0.526160    4.150719
       155
S1: Total Energy = -5113.33230031
 O          8.713536   -1.626602    5.711626
 O         11.096012    2.043938    4.327671
 C          8.709581   -0.577906    5.065562
 C          7.547447   -0.077715    4.335305
 C          6.319041   -0.764330    4.306858
 H          6.252037   -1.699498    4.854114
 C          5.199019   -0.287949    3.606324
 H          4.275444   -0.858572    3.615588
 C          5.292698    0.922710    2.901980
 C          6.542640    2.811591    2.198010
 C          6.543606    1.611398    2.935385
 C          7.661372    1.145651    3.627536
 C          8.835444    1.928477    3.574909
 C         10.022984    1.443353    4.304237
 C          7.702963    3.578905    2.151102
 H          7.740038    4.509711    1.593459
 C          8.844387    3.124058    2.845545
 H          9.761599    3.703312    2.823553
 N          9.880580    0.228291    4.995408
 C         11.073812   -0.233793    5.710889
 H         11.904487   -0.354969    5.011122
 H         11.366564    0.500728    6.465913
 H         10.831013   -1.183460    6.181076
 O         -4.797269    8.654696   -5.339335
 O         -7.054797    4.825213   -4.220717
 C         -4.772525    7.574395   -4.760267
 C         -3.592826    7.076583   -4.029872
 C         -2.405613    7.805479   -3.939908
 H         -2.361718    8.773259   -4.429393
 C         -1.271783    7.326809   -3.238073
 H         -0.370833    7.930504   -3.195475
 C         -1.337399    6.086558   -2.614312
 C         -2.510197    4.109251   -2.043258
 C         -2.550477    5.353142   -2.712172
 C         -3.671352    5.812223   -3.397776
 C         -4.815628    4.983599   -3.416687
 C         -6.011754    5.465356   -4.143410
 C         -3.636685    3.302015   -2.066111
 H         -3.651420    2.338660   -1.565954
 C         -4.787747    3.754389   -2.760289
 H         -5.679237    3.136234   -2.789194
 N         -5.907367    6.723720   -4.762375
 C         -7.106554    7.179427   -5.475952
 H         -7.357779    6.473114   -6.271038
 H         -7.950705    7.236282   -4.784647
 H         -6.891966    8.159558   -5.894127
 C          4.424735    1.732256    2.087448
 C          2.616630    2.503815    0.937148
 C          3.349739    3.688701    0.528176
 C          5.177668    2.911223    1.646287
 C          1.284973    2.328842    0.478737
 C          2.747584    4.676793   -0.276105
 C          1.399003    4.496969   -0.706159
 C          0.676092    3.295224   -0.333030
 C         -1.153689    4.032750   -1.462778
 C         -0.439878    5.247979   -1.820973
 N          4.672898    3.851615    0.899504
 N          3.160938    1.535861    1.720473
 N          0.803886    5.472585   -1.448184
 N         -0.627883    3.082175   -0.736722
 C          3.501565    5.896071   -0.675463
 C          4.070540    6.737904    0.293466
 C          3.658459    6.231811   -2.029875
 C          4.770414    7.884520   -0.080324
 H          3.956732    6.493086    1.344392
 C          4.370653    7.370442   -2.404396
 H          3.225436    5.591163   -2.791070
 C          4.926364    8.203532   -1.430913
 H          5.196796    8.527425    0.685258
 H          4.489292    7.607878   -3.458380
 H          5.476795    9.094132   -1.722560
 C          0.565159    1.095761    0.849656
 C          0.090140    0.731519    2.128632
 S          0.295367   -0.145604   -0.317400
 C         -0.549424   -0.519333    2.139664
 C         -0.578795   -1.128715    0.859678
 C         -1.257547   -2.336839    0.448745
 C         -0.636648   -3.276145   -0.430860
 C         -2.596930   -2.602495    0.870043
 C         -1.302883   -4.496963   -0.801130
 N          0.634504   -3.002214   -0.859733
 C         -3.262768   -3.820422    0.485502
 N         -3.253338   -1.625114    1.573349
 C         -2.615945   -4.784332   -0.337369
 N         -0.672337   -5.439320   -1.579126
 C          1.196159   -3.894162   -1.630269
 N         -4.568223   -4.058980    0.845310
 C         -4.487988   -1.882730    1.909947
 C         -3.298928   -6.041011   -0.712000
 C          0.529585   -5.145008   -1.988045
 C          2.528412   -3.891634   -2.248159
 C         -5.156745   -3.129235    1.543597
 C         -5.445489   -1.052440    2.654939
 C         -3.396678   -6.434257   -2.059661
 C         -3.864951   -6.867666    0.276434
 C          1.452233   -5.927820   -2.825122
 C          3.612176   -3.028769   -2.287842
 C          2.610715   -5.123646   -2.940815
 C         -6.531298   -3.079331    2.065946
 C         -6.630014   -1.825137    2.713917
 C         -5.435111    0.198884    3.250354
 C         -4.051946   -7.612780   -2.406877
 H         -2.976462   -5.802410   -2.833816
 C         -4.494792   -8.059227   -0.072689
 H         -3.790111   -6.582169    1.319777
 C          1.427521   -7.158051   -3.460798
 C          4.763174   -3.411981   -3.025272
 H          3.597515   -2.075814   -1.768968
 C          3.734445   -5.511893   -3.666187
 C         -7.636391   -3.914089    2.056562
 C         -7.791019   -1.386901    3.346211
 H         -4.553297    0.831083    3.225360
 C         -6.611033    0.656688    3.900699
 C         -4.596518   -8.432625   -1.415260
 H         -4.134832   -7.892865   -3.453051
 H         -4.909892   -8.695153    0.703907
 H          0.561770   -7.809447   -3.398901
 C          2.565826   -7.565871   -4.205732
 C          4.833791   -4.625686   -3.704682
 H          5.620027   -2.747928   -3.066373
 C          3.700931   -6.767384   -4.312806
 C         -8.826383   -3.480893    2.699607
 H         -7.608672   -4.883490    1.569607
 C         -8.913051   -2.245099    3.334276
 C         -7.770889   -0.112142    3.954367
 H         -6.618819    1.633779    4.372019
 H         -5.097840   -9.357210   -1.687283
 H          2.562655   -8.526693   -4.709718
 C          6.038129   -5.027237   -4.475359
 C          4.895017   -7.185753   -5.086456
 H         -9.700717   -4.123360    2.701241
 C        -10.151651   -1.783327    4.006311
 C         -9.001782    0.366611    4.633758
 O          7.029187   -4.316658   -4.560805
 N          5.977614   -6.285799   -5.111846
 O          4.964874   -8.251568   -5.682535
 O        -11.174883   -2.451425    4.053526
 N        -10.107022   -0.510122    4.607175
 O         -9.063635    1.455070    5.187398
 C          7.148387   -6.724344   -5.885082
 C        -11.347856   -0.076541    5.265618
 H          7.534365   -7.659047   -5.472283
 H          6.861212   -6.894764   -6.925036
 H          7.901148   -5.942831   -5.822652
 H        -11.611390   -0.781066    6.057670
 H        -11.177188    0.913605    5.680069
 H        -12.161822   -0.050005    4.537812
 C          0.277521    1.594268    3.339787
 H          1.189780    1.303937    3.875493
 H          0.387390    2.644091    3.057627
 H         -0.566117    1.504318    4.030171
 C         -1.018124   -1.160420    3.415759
 H         -1.242133   -2.219780    3.284820
 H         -0.239400   -1.070062    4.181178
 H         -1.919832   -0.671220    3.799797
