        93
S0: Total Energy = -4973.43493925
 C          6.652343   -1.882726    0.244699
 C          6.494276   -3.273005    0.368961
 C          5.132666   -3.630372    0.323269
 C          4.241572   -2.556016    0.169124
 C          2.900489   -2.993476    0.144399
 C          2.781066   -4.382447    0.271719
 C          1.413327   -4.701605    0.181823
 C          0.713821   -5.949301    0.120251
 C         -0.713866   -5.949303   -0.120323
 S          5.088603   -1.043591    0.080986
 S          4.318126   -5.197288    0.436782
 C         -6.652415   -1.882751   -0.244804
 C         -6.494354   -3.273022   -0.369161
 C         -5.132743   -3.630406   -0.323380
 C         -4.241659   -2.556059   -0.169114
 C         -2.900573   -2.993507   -0.144368
 C         -2.781131   -4.382467   -0.271760
 C         -1.413389   -4.701613   -0.181819
 C         -0.715835   -3.466595   -0.035854
 C          0.715751   -3.466586    0.035946
 S         -5.088683   -1.043637   -0.080934
 S         -4.318178   -5.197315   -0.436905
 N         -1.645882   -2.431907    0.013783
 N          1.645785   -2.431891   -0.013689
 N          1.245897   -7.162352    0.210228
 N         -1.245928   -7.162355   -0.210375
 C          1.466137   -1.079349   -0.541952
 H          2.340495   -0.822408   -1.143845
 H          0.594661   -1.052752   -1.195678
 H          1.356072   -0.338918    0.254830
 C         -1.466291   -1.079427    0.542237
 H         -1.356320   -0.338874   -0.254444
 H         -2.340626   -0.822631    1.144225
 H         -0.594776   -1.052873    1.195910
 C         -7.599470   -4.277303   -0.533072
 H         -8.592208   -3.829507   -0.469410
 H         -7.518782   -4.780427   -1.504481
 H         -7.529903   -5.051283    0.240489
 C          7.599379   -4.277275    0.533035
 H          8.592133   -3.829940    0.466397
 H          7.520423   -4.778145    1.505756
 H          7.528047   -5.052995   -0.238606
 S         -0.000009   -8.239711   -0.000103
 C         -7.870311   -1.158257   -0.239591
 C         -8.024144    0.204969   -0.113022
 H         -8.772714   -1.756875   -0.348025
 H         -7.166197    0.859447   -0.003098
 C          7.870257   -1.158263    0.239411
 C          8.024114    0.204972    0.112957
 H          8.772654   -1.756918    0.347711
 H          7.166172    0.859482    0.003182
 C         -9.316088    0.779955   -0.122078
 H        -10.136137    0.077844   -0.233776
 C          9.316076    0.779919    0.121990
 H         10.136111    0.077768    0.233546
 C         -9.618075    2.125778   -0.002805
 C         -8.597710    3.196151    0.154127
 C        -10.932879    2.756509   -0.005252
 O         -7.377141    3.084525    0.204595
 C         -9.344594    4.473978    0.242344
 C        -10.724074    4.220666    0.148294
 C        -12.174440    2.149798   -0.124067
 C         -8.819984    5.750949    0.393848
 C        -11.622866    5.292242    0.207847
 C        -13.407624    2.868737   -0.113326
 C        -12.368842    0.743062   -0.269293
 C         -9.720637    6.804064    0.451660
 H         -7.751513    5.924085    0.464508
 C        -11.099107    6.570093    0.359191
 H        -12.696963    5.184988    0.143154
 N        -14.438537    3.412638   -0.109918
 N        -12.578126   -0.397414   -0.389124
 F         -9.296423    8.066166    0.596709
 F        -11.923203    7.625103    0.420687
 C          9.618100    2.125747    0.002853
 C          8.597772    3.196149   -0.154077
 C         10.932921    2.756439    0.005361
 O          7.377198    3.084562   -0.204535
 C          9.344701    4.473947   -0.242355
 C         10.724171    4.220593   -0.148282
 C         12.174448    2.149691    0.124341
 C          8.820129    5.750922   -0.393960
 C         11.622997    5.292138   -0.207920
 C         13.407654    2.868595    0.113679
 C         12.368793    0.742959    0.269651
 C          9.720816    6.804003   -0.451852
 H          7.751663    5.924086   -0.464637
 C         11.099278    6.569994   -0.359366
 H         12.697091    5.184857   -0.143214
 N         14.438600    3.412435    0.110311
 N         12.578025   -0.397514    0.389614
 F          9.296646    8.066109   -0.597003
 F         11.923409    7.624971   -0.420946
        93
T1: Total Energy = -4973.39427645
 C          6.637756   -1.888213    0.230115
 C          6.469937   -3.295565    0.345304
 C          5.122272   -3.641637    0.301050
 C          4.221768   -2.555867    0.156478
 C          2.894730   -2.982860    0.130203
 C          2.766268   -4.390627    0.243876
 C          1.416485   -4.703638    0.152434
 C          0.714656   -5.954727    0.103109
 C         -0.714814   -5.954732   -0.103139
 S          5.078603   -1.038267    0.078353
 S          4.301292   -5.213773    0.401943
 C         -6.637939   -1.888256   -0.230069
 C         -6.470114   -3.295628   -0.345107
 C         -5.122435   -3.641663   -0.301074
 C         -4.221923   -2.555874   -0.156673
 C         -2.894887   -2.982862   -0.130384
 C         -2.766424   -4.390639   -0.243959
 C         -1.416640   -4.703643   -0.152539
 C         -0.704376   -3.453509   -0.021453
 C          0.704225   -3.453511    0.021241
 S         -5.078771   -1.038280   -0.078536
 S         -4.301448   -5.213793   -0.401969
 N         -1.644147   -2.418069    0.018953
 N          1.643994   -2.418077   -0.019203
 N          1.249666   -7.164805    0.181860
 N         -1.249831   -7.164812   -0.181789
 C          1.466730   -1.065133   -0.549352
 H          2.343140   -0.808879   -1.148438
 H          0.597310   -1.039368   -1.205991
 H          1.353861   -0.325220    0.247266
 C         -1.466862   -1.065096    0.549020
 H         -1.353944   -0.325240   -0.247644
 H         -2.343292   -0.808771    1.148046
 H         -0.597466   -1.039308    1.205693
 C         -7.613001   -4.260894   -0.492709
 H         -8.306382   -4.189771    0.353081
 H         -8.186406   -4.062814   -1.405738
 H         -7.253230   -5.292078   -0.542206
 C          7.612848   -4.260800    0.492906
 H          8.303962   -4.192600   -0.355006
 H          8.188804   -4.060064    1.403722
 H          7.252817   -5.291678    0.546642
 S         -0.000086   -8.245545    0.000082
 C         -7.862464   -1.200147   -0.229909
 C         -8.035541    0.175026   -0.112358
 H         -8.752311   -1.818870   -0.331103
 H         -7.175917    0.829596   -0.009217
 C          7.862304   -1.200136    0.229919
 C          8.035448    0.175017    0.112314
 H          8.752120   -1.818900    0.331149
 H          7.175865    0.829635    0.009137
 C         -9.315269    0.754549   -0.120697
 H        -10.145571    0.064178   -0.225288
 C          9.315218    0.754461    0.120697
 H         10.145459    0.064032    0.225381
 C         -9.599322    2.115376   -0.006718
 C         -8.561614    3.172342    0.140679
 C        -10.896662    2.762617   -0.006702
 O         -7.342219    3.041541    0.186208
 C         -9.287137    4.462527    0.226488
 C        -10.670326    4.226533    0.139488
 C        -12.152473    2.170126   -0.118693
 C         -8.744338    5.731774    0.370033
 C        -11.552995    5.309795    0.198392
 C        -13.373065    2.907051   -0.106387
 C        -12.370803    0.767784   -0.257191
 C         -9.630357    6.798895    0.427439
 H         -7.673247    5.890492    0.435206
 C        -11.010506    6.582641    0.342165
 H        -12.628777    5.217301    0.138976
 N        -14.396076    3.467183   -0.101356
 N        -12.604536   -0.369211   -0.371555
 F         -9.186209    8.056225    0.565357
 F        -11.822190    7.648116    0.402740
 C          9.599372    2.115258    0.006704
 C          8.561743    3.172273   -0.140888
 C         10.896755    2.762429    0.006804
 O          7.342342    3.041545   -0.186464
 C          9.287345    4.462418   -0.226622
 C         10.670510    4.226348   -0.139476
 C         12.152529    2.169904    0.118981
 C          8.744635    5.731696   -0.370236
 C         11.553250    5.309556   -0.198295
 C         13.373141    2.906798    0.106765
 C         12.370810    0.767563    0.257582
 C          9.630723    6.798763   -0.427561
 H          7.673561    5.890477   -0.435524
 C         11.010852    6.582431   -0.342142
 H         12.629021    5.216997   -0.138753
 N         14.396155    3.466922    0.101782
 N         12.604526   -0.369408    0.372212
 F          9.186665    8.056118   -0.565539
 F         11.822604    7.647860   -0.402638
        93
S1: Total Energy = -4973.37892484
 C          6.636001   -1.885803    0.240283
 C          6.474954   -3.284599    0.356012
 C          5.120920   -3.636398    0.309865
 C          4.224892   -2.554019    0.163037
 C          2.893206   -2.984115    0.135792
 C          2.767388   -4.389047    0.251852
 C          1.415880   -4.703317    0.157434
 C          0.714371   -5.953608    0.105976
 C         -0.714364   -5.953610   -0.105873
 S          5.079054   -1.038137    0.084931
 S          4.303659   -5.208581    0.412632
 C         -6.635952   -1.885750   -0.240560
 C         -6.474913   -3.284548   -0.356251
 C         -5.120891   -3.636371   -0.309954
 C         -4.224857   -2.553994   -0.163137
 C         -2.893176   -2.984101   -0.135871
 C         -2.767368   -4.389042   -0.251857
 C         -1.415864   -4.703317   -0.157400
 C         -0.704777   -3.453542   -0.023542
 C          0.704802   -3.453544    0.023504
 S         -5.079003   -1.038095   -0.085176
 S         -4.303648   -5.208573   -0.412584
 N         -1.644233   -2.418817    0.017026
 N          1.644267   -2.418827   -0.017125
 N          1.249035   -7.164108    0.186716
 N         -1.249030   -7.164111   -0.186574
 C          1.468493   -1.063500   -0.542359
 H          2.347725   -0.804708   -1.135954
 H          0.602471   -1.035874   -1.203263
 H          1.351759   -0.327451    0.257110
 C         -1.468446   -1.063450    0.542152
 H         -1.351661   -0.327473   -0.257376
 H         -2.347697   -0.804583    1.135684
 H         -0.602451   -1.035788    1.203091
 C         -7.616076   -4.252553   -0.506826
 H         -8.312474   -4.182475    0.336336
 H         -8.186210   -4.057363   -1.422324
 H         -7.254015   -5.283057   -0.553721
 C          7.616100   -4.252621    0.506622
 H          8.313726   -4.180988   -0.335376
 H          8.184845   -4.058846    1.423300
 H          7.254194   -5.283281    0.551235
 S         -0.000008   -8.244312    0.000151
 C         -7.865503   -1.186620   -0.240373
 C         -8.034703    0.180467   -0.120481
 H         -8.755475   -1.805011   -0.344356
 H         -7.176855    0.836833   -0.014819
 C          7.865543   -1.186655    0.240166
 C          8.034729    0.180432    0.120254
 H          8.755516   -1.805022    0.344273
 H          7.176880    0.836775    0.014452
 C         -9.321689    0.760749   -0.128379
 H        -10.148925    0.066881   -0.235459
 C          9.321701    0.760745    0.128315
 H         10.148937    0.066903    0.235563
 C         -9.609264    2.115349   -0.010596
 C         -8.574804    3.175841    0.142001
 C        -10.911217    2.760415   -0.008603
 O         -7.354853    3.049145    0.186666
 C         -9.305050    4.462187    0.234385
 C        -10.688526    4.220924    0.145695
 C        -12.165268    2.162971   -0.126077
 C         -8.766860    5.732315    0.384707
 C        -11.574695    5.302045    0.210316
 C        -13.388640    2.894284   -0.110099
 C        -12.377068    0.761275   -0.274888
 C         -9.656704    6.796514    0.447690
 H         -7.696304    5.894292    0.450931
 C        -11.036149    6.575721    0.361006
 H        -12.650138    5.206099    0.150178
 N        -14.414162    3.450566   -0.102220
 N        -12.604357   -0.376519   -0.398244
 F         -9.216718    8.054701    0.592459
 F        -11.851278    7.638302    0.427169
 C          9.609263    2.115346    0.010519
 C          8.574805    3.175796   -0.142384
 C         10.911195    2.760455    0.008817
 O          7.354871    3.049052   -0.187378
 C          9.305030    4.462163   -0.234653
 C         10.688490    4.220954   -0.145570
 C         12.165241    2.163054    0.126566
 C          8.766834    5.732263   -0.385183
 C         11.574635    5.302108   -0.209957
 C         13.388589    2.894412    0.110899
 C         12.377059    0.761361    0.275380
 C          9.656655    6.796495   -0.447947
 H          7.696291    5.894196   -0.451721
 C         11.036082    6.575759   -0.360841
 H         12.650063    5.206209   -0.149502
 N         14.414096    3.450727    0.103287
 N         12.604367   -0.376431    0.398720
 F          9.216662    8.054660   -0.592890
 F         11.851189    7.638370   -0.426791
