        79
S0: Total Energy = -4093.99752574
 C          6.268331   -1.242335    0.163781
 C          6.430944   -2.635134    0.263505
 C          5.147429   -3.186756    0.250771
 C          4.263229   -2.103838    0.151884
 C          2.912073   -2.483484    0.129869
 C          2.784260   -3.874906    0.202016
 C          1.412657   -4.163745    0.129090
 C          0.716014   -5.412167    0.081840
 C         -0.716071   -5.412174   -0.081750
 S          4.313623   -4.739393    0.313650
 C         -6.268357   -1.242313   -0.163870
 C         -6.430991   -2.635123   -0.263415
 C         -5.147478   -3.186753   -0.250746
 C         -4.263261   -2.103830   -0.152074
 C         -2.912106   -2.483483   -0.130113
 C         -2.784308   -3.874915   -0.202077
 C         -1.412705   -4.163752   -0.129165
 C         -0.719997   -2.912220   -0.034652
 C          0.719963   -2.912222    0.034376
 S         -4.313688   -4.739406   -0.313472
 C          7.292244   -0.280520    0.140777
 C          7.310088    1.097224    0.016889
 C          6.143309    1.997811   -0.218905
 O          4.957366    1.718176   -0.322919
 C          6.697968    3.368495   -0.332325
 C          5.989059    4.540834   -0.561221
 C          6.717599    5.717964   -0.635752
 C          8.111149    5.704954   -0.484902
 C          8.818182    4.531961   -0.255636
 C          8.092930    3.335897   -0.178208
 C          8.514088    1.930720    0.053942
 C          9.826834    1.542143    0.278944
 C         10.927267    2.452373    0.284858
 N         11.859241    3.152044    0.298820
 C         10.248085    0.203028    0.539937
 N         10.646250   -0.870471    0.759535
 H          8.253184   -0.770473    0.243408
 H          4.910637    4.541023   -0.677533
 F          6.110842    6.891586   -0.853466
 F          8.764685    6.871632   -0.568053
 H          9.892173    4.597194   -0.150337
 C         -7.292255   -0.280482   -0.140818
 C         -7.310066    1.097270   -0.016978
 C         -6.143258    1.997856    0.218685
 O         -4.957295    1.718235    0.322512
 C         -6.697911    3.368532    0.332238
 C         -5.988978    4.540864    0.561101
 C         -6.717512    5.717990    0.635754
 C         -8.111078    5.704986    0.485049
 C         -8.818133    4.532001    0.255814
 C         -8.092888    3.335939    0.178270
 C         -8.514067    1.930771   -0.053893
 C         -9.826838    1.542195   -0.278764
 C        -10.927278    2.452418   -0.284483
 N        -11.859251    3.152093   -0.298276
 C        -10.248102    0.203093   -0.539800
 N        -10.646272   -0.870396   -0.759437
 H         -8.253216   -0.770424   -0.243309
 H         -4.910544    4.541052    0.677296
 F         -6.110732    6.891604    0.853447
 F         -8.764605    6.871660    0.568312
 H         -9.892136    4.597234    0.150636
 N         -1.670717   -1.894556   -0.024712
 N          1.670690   -1.894563    0.024351
 N          1.254959   -6.624273    0.143418
 N         -1.255023   -6.624284   -0.143162
 C          1.546339   -0.461197   -0.243325
 H          2.548563   -0.057131   -0.390648
 H          0.970107   -0.291923   -1.155113
 H          1.089327    0.064685    0.595714
 C         -1.546352   -0.461139    0.242671
 H         -1.089362    0.064566   -0.596493
 H         -2.548569   -0.057040    0.389949
 H         -0.970088   -0.291680    1.154403
 S         -0.000035   -7.701652    0.000202
 H         -7.384855   -3.139745   -0.331099
 H          7.384798   -3.139756    0.331341
 O         -4.916217   -0.932376   -0.099291
 O          4.916199   -0.932394    0.099028
        79
T1: Total Energy = -4093.95234423
 C          6.256196   -1.251000    0.129252
 C          6.412126   -2.657855    0.225690
 C          5.130817   -3.192762    0.226021
 C          4.241934   -2.102885    0.138161
 C          2.904071   -2.469898    0.118026
 C          2.766472   -3.881104    0.184247
 C          1.414870   -4.165541    0.111491
 C          0.715453   -5.417649    0.071543
 C         -0.715622   -5.417641   -0.071632
 S          4.297468   -4.749125    0.288211
 C         -6.256323   -1.250940   -0.129216
 C         -6.412269   -2.657790   -0.225696
 C         -5.130965   -3.192707   -0.226054
 C         -4.242070   -2.102841   -0.138166
 C         -2.904211   -2.469866   -0.118053
 C         -2.766624   -3.881073   -0.184313
 C         -1.415026   -4.165524   -0.111557
 C         -0.705335   -2.896872   -0.024479
 C          0.705191   -2.896879    0.024450
 S         -4.297630   -4.749075   -0.288293
 C          7.282326   -0.296566    0.103802
 C          7.290360    1.091028   -0.027533
 C          6.122713    1.977692   -0.328147
 O          4.951091    1.677142   -0.509349
 C          6.660169    3.357119   -0.405821
 C          5.948544    4.520981   -0.661396
 C          6.664463    5.709596   -0.691264
 C          8.046965    5.711235   -0.471837
 C          8.758251    4.543568   -0.217155
 C          8.046902    3.338710   -0.184616
 C          8.471664    1.935325    0.056808
 C          9.786959    1.556192    0.329408
 C         10.874449    2.477377    0.374271
 N         11.797553    3.188907    0.420660
 C         10.215428    0.223896    0.601600
 N         10.624969   -0.843949    0.832782
 H          8.244178   -0.780338    0.217010
 H          4.877210    4.508696   -0.830903
 F          6.051752    6.877728   -0.930134
 F          8.691379    6.886015   -0.512180
 H          9.824817    4.621803   -0.058490
 C         -7.282431   -0.296487   -0.103730
 C         -7.290391    1.091102    0.027639
 C         -6.122694    1.977666    0.328333
 O         -4.951079    1.677028    0.509441
 C         -6.660026    3.357148    0.405887
 C         -5.948302    4.520964    0.661392
 C         -6.664119    5.709642    0.691186
 C         -8.046619    5.711387    0.471748
 C         -8.758004    4.543766    0.217134
 C         -8.046761    3.338842    0.184675
 C         -8.471635    1.935480   -0.056700
 C         -9.786952    1.556427   -0.329310
 C        -10.874391    2.477671   -0.374195
 N        -11.797466    3.189236   -0.420618
 C        -10.215493    0.224153   -0.601503
 N        -10.625082   -0.843683   -0.832638
 H         -8.244304   -0.780220   -0.216938
 H         -4.876972    4.508596    0.830913
 F         -6.051308    6.877736    0.929988
 F         -8.690931    6.886225    0.512012
 H         -9.824561    4.622087    0.058448
 N         -1.668458   -1.878042   -0.018343
 N          1.668324   -1.878059    0.018334
 N          1.256068   -6.626409    0.126301
 N         -1.256246   -6.626393   -0.126451
 C          1.544250   -0.448201   -0.268711
 H          2.545222   -0.048954   -0.437490
 H          0.954379   -0.292020   -1.174329
 H          1.100463    0.090565    0.569528
 C         -1.544371   -0.448196    0.268762
 H         -1.100570    0.090599   -0.569451
 H         -2.545340   -0.048947    0.437549
 H         -0.954507   -0.292060    1.174392
 S         -0.000104   -7.708005    0.000004
 H         -7.363543   -3.167475   -0.281428
 H          7.363395   -3.167549    0.281418
 O         -4.912070   -0.929949   -0.082339
 O          4.911945   -0.929999    0.082376
        79
S1: Total Energy = -4093.93565737
 C          6.261143   -1.252614    0.128862
 C          6.422424   -2.650536    0.203687
 C          5.135274   -3.193737    0.196763
 C          4.251229   -2.106676    0.125063
 C          2.906612   -2.477407    0.104456
 C          2.772147   -3.883558    0.154699
 C          1.415037   -4.166095    0.093166
 C          0.716560   -5.416839    0.058635
 C         -0.716583   -5.416834   -0.058810
 S          4.304177   -4.750436    0.240469
 C         -6.261151   -1.252587   -0.128817
 C         -6.422439   -2.650507   -0.203685
 C         -5.135291   -3.193711   -0.196806
 C         -4.251241   -2.106656   -0.125084
 C         -2.906625   -2.477393   -0.104506
 C         -2.772165   -3.883542   -0.154800
 C         -1.415056   -4.166086   -0.093290
 C         -0.708108   -2.897716   -0.023553
 C          0.708094   -2.897720    0.023470
 S         -4.304199   -4.750411   -0.240585
 C          7.290138   -0.288591    0.112580
 C          7.299112    1.092983    0.004515
 C          6.123795    1.992576   -0.227390
 O          4.941030    1.703593   -0.342277
 C          6.668823    3.366578   -0.320918
 C          5.955114    4.536860   -0.537505
 C          6.677551    5.720802   -0.593760
 C          8.069268    5.711296   -0.436277
 C          8.783149    4.538515   -0.218842
 C          8.065726    3.336197   -0.160326
 C          8.492611    1.934997    0.054442
 C          9.814079    1.543829    0.278065
 C         10.908888    2.456691    0.292989
 N         11.837974    3.162290    0.312950
 C         10.240931    0.207055    0.526408
 N         10.647515   -0.866892    0.736032
 H          8.252593   -0.776150    0.206055
 H          4.877168    4.532806   -0.658657
 F          6.063591    6.894449   -0.799576
 F          8.718614    6.882092   -0.500536
 H          9.856236    4.608320   -0.107195
 C         -7.290143   -0.288561   -0.112484
 C         -7.299112    1.093010   -0.004380
 C         -6.123795    1.992599    0.227531
 O         -4.941006    1.703637    0.342222
 C         -6.668809    3.366615    0.320944
 C         -5.955082    4.536911    0.537398
 C         -6.677510    5.720860    0.593607
 C         -8.069236    5.711348    0.436207
 C         -8.783134    4.538555    0.218896
 C         -8.065721    3.336228    0.160424
 C         -8.492617    1.935015   -0.054246
 C         -9.814087    1.543815   -0.277796
 C        -10.908922    2.456646   -0.292709
 N        -11.838041    3.162202   -0.312655
 C        -10.240910    0.207020   -0.526070
 N        -10.647444   -0.866957   -0.735640
 H         -8.252603   -0.776113   -0.205949
 H         -4.877130    4.532860    0.658498
 F         -6.063534    6.894519    0.799306
 F         -8.718573    6.882151    0.500418
 H         -9.856226    4.608359    0.107299
 N         -1.672231   -1.881877   -0.023527
 N          1.672221   -1.881884    0.023484
 N          1.258343   -6.626435    0.103386
 N         -1.258371   -6.626427   -0.103599
 C          1.553628   -0.437832   -0.182935
 H          2.558894   -0.028877   -0.290802
 H          0.996928   -0.226326   -1.097859
 H          1.078863    0.047454    0.670587
 C         -1.553630   -0.437833    0.182946
 H         -1.078877    0.047485   -0.670564
 H         -2.558894   -0.028880    0.290844
 H         -0.996916   -0.226364    1.097870
 S         -0.000015   -7.706845   -0.000136
 H         -7.374407   -3.159715   -0.252233
 H          7.374390   -3.159750    0.252234
 O         -4.915548   -0.933160   -0.085074
 O          4.915541   -0.933181    0.085101
