        79
S0: Total Energy = -4739.97259423
 C         -6.646307    0.834496    0.155625
 C         -6.468423    2.224005    0.282145
 C         -5.131974    2.611461    0.258456
 C         -4.241428    1.526293    0.114122
 C         -2.901991    1.967348    0.106150
 C         -2.782596    3.357842    0.234989
 C         -1.415113    3.675179    0.163364
 C         -0.714863    4.923552    0.111192
 C          0.714883    4.923557   -0.111084
 S         -5.073642    0.003187    0.014527
 S         -4.318549    4.178924    0.381236
 C          6.646327    0.834508   -0.155689
 C          6.468443    2.224021   -0.282150
 C          5.131994    2.611475   -0.258455
 C          4.241447    1.526299   -0.114180
 C          2.902010    1.967354   -0.106191
 C          2.782615    3.357854   -0.234959
 C          1.415133    3.675187   -0.163322
 C          0.716205    2.438534   -0.026592
 C         -0.716187    2.438533    0.026566
 S          5.073662    0.003188   -0.014669
 S          4.318569    4.178943   -0.381158
 C         -7.951555    0.285318    0.146284
 C         -8.456035   -0.997208    0.041356
 C         -7.652859   -2.231525   -0.083784
 O         -6.430087   -2.331383   -0.126154
 C         -8.608188   -3.358805   -0.147173
 C         -8.315357   -4.711643   -0.263658
 C         -9.387314   -5.590467   -0.302366
 C        -10.703491   -5.114676   -0.225600
 C        -10.994669   -3.761379   -0.109559
 C         -9.921453   -2.863097   -0.069765
 C         -9.868704   -1.382046    0.043858
 C        -10.984976   -0.565346    0.126177
 C        -12.324588   -1.060446    0.119753
 N        -13.434524   -1.415400    0.118843
 C        -10.940851    0.858874    0.222604
 N        -10.959274    2.021681    0.301450
 H         -8.688180    1.074824    0.245429
 H         -7.294299   -5.072844   -0.322217
 F         -9.192069   -6.910102   -0.413142
 F        -11.699730   -6.008891   -0.267021
 H        -12.033419   -3.466283   -0.055272
 C          7.951573    0.285328   -0.146338
 C          8.456039   -0.997207   -0.041448
 C          7.652840   -2.231515    0.083626
 O          6.430069   -2.331342    0.126092
 C          8.608153   -3.358802    0.147136
 C          8.315302   -4.711628    0.263696
 C          9.387246   -5.590464    0.302481
 C         10.703432   -5.114695    0.225717
 C         10.994630   -3.761408    0.109608
 C          9.921426   -2.863114    0.069739
 C          9.868702   -1.382068   -0.043939
 C         10.984993   -0.565392   -0.126254
 C         12.324593   -1.060522   -0.119784
 N         13.434519   -1.415508   -0.118835
 C         10.940905    0.858828   -0.222707
 N         10.959366    2.021632   -0.301582
 H          8.688204    1.074833   -0.245440
 H          7.294238   -5.072814    0.322244
 F          9.191982   -6.910091    0.413324
 F         11.699658   -6.008920    0.267215
 H         12.033385   -3.466328    0.055338
 N          1.645309    1.405535    0.035877
 N         -1.645290    1.405537   -0.035952
 N         -1.248287    6.136059    0.194510
 N          1.248307    6.136069   -0.194338
 C         -1.459964    0.050631   -0.557067
 H         -2.327962   -0.207944   -1.167156
 H         -0.581156    0.021478   -1.200617
 H         -1.359889   -0.686191    0.244205
 C          1.459979    0.050596    0.556902
 H          1.359900   -0.686173   -0.244418
 H          2.327978   -0.208022    1.166973
 H          0.581172    0.021404    1.200453
 S          0.000010    7.213697    0.000116
 H          7.310416    2.899965   -0.382006
 H         -7.310394    2.899943    0.382047
        79
T1: Total Energy = -4739.92736639
 C         -6.635749   -0.837642   -0.150396
 C         -6.446795   -2.239763   -0.264987
 C         -5.115868   -2.613054   -0.240098
 C         -4.220958   -1.519869   -0.107535
 C         -2.894220   -1.948846   -0.095497
 C         -2.764902   -3.362162   -0.207613
 C         -1.418604   -3.673014   -0.129752
 C         -0.715744   -4.925047   -0.090719
 C          0.715738   -4.925045    0.090807
 S         -5.072225    0.008083   -0.021596
 S         -4.301261   -4.187605   -0.346912
 C          6.635752   -0.837649    0.150330
 C          6.446795   -2.239765    0.264966
 C          5.115868   -2.613055    0.240082
 C          4.220961   -1.519874    0.107468
 C          2.894221   -1.948849    0.095447
 C          2.764900   -3.362159    0.207625
 C          1.418602   -3.673012    0.129779
 C          0.701442   -2.417525    0.010080
 C         -0.701441   -2.417524   -0.010108
 S          5.072231    0.008073    0.021476
 S          4.301257   -4.187599    0.346964
 C         -7.940378   -0.296740   -0.144027
 C         -8.449199    0.994504   -0.047270
 C         -7.644604    2.232052    0.067433
 O         -6.420980    2.329191    0.101492
 C         -8.597289    3.360343    0.133703
 C         -8.305854    4.712915    0.245089
 C         -9.379530    5.591530    0.289048
 C        -10.693088    5.112204    0.222187
 C        -10.983134    3.756297    0.110820
 C         -9.909984    2.859965    0.065770
 C         -9.852354    1.378277   -0.045346
 C        -10.973688    0.554669   -0.124756
 C        -12.311349    1.048718   -0.115165
 N        -13.421963    1.404680   -0.111441
 C        -10.931032   -0.867402   -0.221464
 N        -10.954232   -2.031075   -0.300930
 H         -8.676579   -1.086816   -0.233673
 H         -7.285072    5.076173    0.296165
 F         -9.184117    6.913012    0.395843
 F        -11.693028    6.003101    0.268392
 H        -12.021788    3.459447    0.064374
 C          7.940380   -0.296745    0.143987
 C          8.449202    0.994497    0.047204
 C          7.644608    2.232039   -0.067573
 O          6.420984    2.329178   -0.101626
 C          8.597291    3.360336   -0.133764
 C          8.305854    4.712910   -0.245130
 C          9.379529    5.591530   -0.289025
 C         10.693086    5.112208   -0.222121
 C         10.983133    3.756300   -0.110768
 C          9.909984    2.859963   -0.065777
 C          9.852356    1.378274    0.045329
 C         10.973689    0.554670    0.124785
 C         12.311349    1.048723    0.115240
 N         13.421963    1.404686    0.111556
 C         10.931034   -0.867401    0.221492
 N         10.954234   -2.031073    0.300961
 H          8.676580   -1.086816    0.233692
 H          7.285073    5.076165   -0.296246
 F          9.184115    6.913013   -0.395802
 F         11.693024    6.003110   -0.268266
 H         12.021786    3.459455   -0.064279
 N          1.644745   -1.382720   -0.038963
 N         -1.644742   -1.382715    0.038890
 N         -1.252488   -6.134118   -0.160402
 N          1.252479   -6.134114    0.160544
 C         -1.464000   -0.025696    0.558122
 H         -2.339119    0.236065    1.156419
 H         -0.592833    0.003725    1.212236
 H         -1.352814    0.707055   -0.245147
 C          1.464005   -0.025721   -0.558248
 H          1.352827    0.707063    0.244992
 H          2.339121    0.236012   -1.156561
 H          0.592833    0.003676   -1.212357
 S         -0.000006   -7.216026    0.000099
 H          7.286140   -2.919082    0.357907
 H         -7.286142   -2.919083   -0.357888
        79
S1: Total Energy = -4739.91152598
 C         -6.635745   -0.840750   -0.152837
 C         -6.455024   -2.234563   -0.269635
 C         -5.117695   -2.615227   -0.244804
 C         -4.227128   -1.526885   -0.109521
 C         -2.893609   -1.961707   -0.099590
 C         -2.769240   -3.368272   -0.216789
 C         -1.417720   -3.681515   -0.138383
 C         -0.715362   -4.931993   -0.096064
 C          0.715350   -4.931989    0.096160
 S         -5.071087    0.000097   -0.020775
 S         -4.307482   -4.189141   -0.357034
 C          6.635739   -0.840751    0.152777
 C          6.455016   -2.234560    0.269621
 C          5.117686   -2.615224    0.244796
 C          4.227121   -1.526886    0.109468
 C          2.893602   -1.961707    0.099552
 C          2.769230   -3.368267    0.216810
 C          1.417710   -3.681510    0.138422
 C          0.704400   -2.429625    0.013955
 C         -0.704408   -2.429625   -0.013970
 S          5.071083    0.000091    0.020658
 S          4.307472   -4.189131    0.357095
 C         -7.946275   -0.291346   -0.144757
 C         -8.447887    0.994709   -0.046488
 C         -7.637396    2.230506    0.068594
 O         -6.413388    2.320940    0.103497
 C         -8.585516    3.360717    0.133227
 C         -8.288576    4.712052    0.244023
 C         -9.358393    5.595625    0.286394
 C        -10.674647    5.121384    0.218436
 C        -10.971427    3.767634    0.107912
 C         -9.901939    2.864072    0.064481
 C         -9.854850    1.387495   -0.043996
 C        -10.978575    0.565148   -0.120102
 C        -12.314498    1.062338   -0.111255
 N        -13.424107    1.422835   -0.107979
 C        -10.938255   -0.856602   -0.210651
 N        -10.960866   -2.021176   -0.284695
 H         -8.683460   -1.080736   -0.235331
 H         -7.266185    5.070716    0.295841
 F         -9.157735    6.916396    0.392451
 F        -11.669704    6.017601    0.262967
 H        -12.011311    3.475207    0.060676
 C          7.946269   -0.291348    0.144710
 C          8.447888    0.994704    0.046422
 C          7.637404    2.230501   -0.068704
 O          6.413396    2.320948   -0.103532
 C          8.585529    3.360714   -0.133258
 C          8.288594    4.712054   -0.243999
 C          9.358415    5.595625   -0.286330
 C         10.674666    5.121375   -0.218388
 C         10.971441    3.767621   -0.107909
 C          9.901949    2.864062   -0.064513
 C          9.854852    1.387483    0.043938
 C         10.978574    0.565133    0.120065
 C         12.314498    1.062320    0.111238
 N         13.424109    1.422815    0.107973
 C         10.938249   -0.856615    0.210639
 N         10.960855   -2.021188    0.284706
 H          8.683451   -1.080738    0.235312
 H          7.266205    5.070724   -0.295814
 F          9.157762    6.916400   -0.392339
 F         11.669727    6.017591   -0.262883
 H         12.011323    3.475189   -0.060674
 N          1.644557   -1.395933   -0.038204
 N         -1.644564   -1.395929    0.038145
 N         -1.251248   -6.142118   -0.169517
 N          1.251234   -6.142112    0.169663
 C         -1.464202   -0.036551    0.552090
 H         -2.339699    0.226496    1.149026
 H         -0.593495   -0.004652    1.206434
 H         -1.353628    0.692727   -0.254263
 C          1.464195   -0.036573   -0.552197
 H          1.353627    0.692734    0.254130
 H          2.339690    0.226451   -1.149146
 H          0.593485   -0.004695   -1.206537
 S         -0.000007   -7.222570    0.000096
 H          7.295228   -2.912706    0.364001
 H         -7.295238   -2.912713   -0.363975
