        79
S0: Total Energy = -3961.95817082
 C          6.797275   -0.753594    0.147562
 C          6.487403   -2.114898    0.265080
 C          5.129986   -2.437919    0.239141
 C          4.237362   -1.357066    0.100024
 C          2.904292   -1.804327    0.095030
 C          2.782891   -3.197171    0.222311
 C          1.415433   -3.513388    0.155435
 C          0.715256   -4.761979    0.106677
 C         -0.715202   -4.761957   -0.107137
 S          4.317639   -4.009943    0.361694
 C         -6.797179   -0.753496   -0.147540
 C         -6.487317   -2.114790   -0.265207
 C         -5.129904   -2.437831   -0.239307
 C         -4.237269   -1.357005   -0.100068
 C         -2.904204   -1.804282   -0.095149
 C         -2.782818   -3.197112   -0.222595
 C         -1.415363   -3.513353   -0.155759
 C         -0.716038   -2.275371   -0.023791
 C          0.716121   -2.275384    0.023615
 S         -4.317576   -4.009850   -0.362068
 C          8.144364   -0.330054    0.148891
 C          8.760788    0.905381    0.049760
 C          8.068880    2.201912   -0.082905
 O          6.857777    2.410517   -0.131231
 C          9.115914    3.243537   -0.148076
 C          8.939847    4.615884   -0.272342
 C         10.083436    5.400011   -0.311945
 C         11.354050    4.813652   -0.228437
 C         11.528028    3.440421   -0.104392
 C         10.381883    2.637568   -0.063262
 C         10.200815    1.167264    0.059812
 C         11.242399    0.258375    0.158135
 C         12.619445    0.637275    0.154044
 N         13.755446    0.896933    0.154990
 C         11.074487   -1.155245    0.272563
 N         10.991508   -2.313989    0.367715
 H          8.808787   -1.182132    0.249978
 H          7.953547    5.062465   -0.336158
 F         10.001545    6.730675   -0.430218
 F         12.423359    5.618626   -0.271452
 H         12.537494    3.057656   -0.045525
 C         -8.144278   -0.329975   -0.148751
 C         -8.760768    0.905420   -0.049488
 C         -8.068965    2.202024    0.083028
 O         -6.857880    2.410744    0.131320
 C         -9.116080    3.243578    0.148035
 C         -8.940120    4.615959    0.272077
 C        -10.083768    5.400006    0.311531
 C        -11.354336    4.813536    0.228099
 C        -11.528208    3.440270    0.104291
 C        -10.382001    2.637497    0.063312
 C        -10.200814    1.167182   -0.059457
 C        -11.242317    0.258162   -0.157393
 C        -12.619401    0.636925   -0.153382
 N        -13.755426    0.896475   -0.154390
 C        -11.074267   -1.155491   -0.271231
 N        -10.991140   -2.314267   -0.365859
 H         -8.808678   -1.182065   -0.249903
 H         -7.953855    5.062624    0.335838
 F        -10.001981    6.730696    0.429581
 F        -12.423708    5.618436    0.270948
 H        -12.537644    3.057420    0.045464
 N         -1.645574   -1.242427    0.040343
 N          1.645669   -1.242444   -0.040414
 N          1.248568   -5.975189    0.186680
 N         -1.248531   -5.975151   -0.187278
 C          1.459131    0.113228   -0.557747
 H          2.326863    0.373454   -1.168100
 H          0.580403    0.144577   -1.201472
 H          1.358793    0.848536    0.245179
 C         -1.459018    0.113195    0.557800
 H         -1.358695    0.848581   -0.245055
 H         -2.326735    0.373363    1.168198
 H         -0.580274    0.144476    1.201507
 S          0.000008   -7.051377   -0.000340
 H         -7.276286   -2.853919   -0.364617
 H          7.276365   -2.854042    0.364431
Se         -5.162507    0.315808    0.010277
Se          5.162622    0.315743   -0.010179
        79
T1: Total Energy = -3961.91469735
 C         -6.789554   -0.758439   -0.139016
 C         -6.466242   -2.131482   -0.245277
 C         -5.115433   -2.439213   -0.219624
 C         -4.218151   -1.349053   -0.093018
 C         -2.897266   -1.784624   -0.084698
 C         -2.765252   -3.199591   -0.195526
 C         -1.418773   -3.509040   -0.123102
 C         -0.715991   -4.761308   -0.087037
 C          0.715982   -4.761306    0.087050
 S         -4.300679   -4.018154   -0.327050
 C          6.789543   -0.758430    0.138993
 C          6.466230   -2.131472    0.245274
 C          5.115422   -2.439205    0.219614
 C          4.218140   -1.349049    0.092980
 C          2.897255   -1.784621    0.084666
 C          2.765242   -3.199586    0.195519
 C          1.418764   -3.509037    0.123096
 C          0.701401   -2.252246    0.008118
 C         -0.701411   -2.252246   -0.008149
 S          4.300670   -4.018145    0.327067
 C         -8.134415   -0.343097   -0.140710
 C         -8.756590    0.900382   -0.050610
 C         -8.064623    2.200516    0.066660
 O         -6.852346    2.407439    0.105968
 C         -9.109590    3.243308    0.129270
 C         -8.935404    4.616031    0.241293
 C        -10.081002    5.399471    0.281244
 C        -11.348657    4.809084    0.209878
 C        -11.520714    3.432725    0.097765
 C        -10.374421    2.632132    0.056550
 C        -10.187803    1.160786   -0.055539
 C        -11.232847    0.243757   -0.142844
 C        -12.608317    0.620925   -0.135508
 N        -13.745186    0.880628   -0.133279
 C        -11.065963   -1.168826   -0.247341
 N        -10.987489   -2.329417   -0.334242
 H         -8.798318   -1.196045   -0.230092
 H         -7.949757    5.065369    0.295896
 F         -9.999686    6.732466    0.388454
 F        -12.421503    5.610369    0.252509
 H        -12.529811    3.047643    0.047855
 C          8.134404   -0.343090    0.140697
 C          8.756588    0.900385    0.050591
 C          8.064634    2.200526   -0.066679
 O          6.852360    2.407460   -0.106017
 C          9.109611    3.243311   -0.129246
 C          8.935438    4.616037   -0.241250
 C         10.081043    5.399469   -0.281159
 C         11.348692    4.809071   -0.209773
 C         11.520736    3.432709   -0.097681
 C         10.374435    2.632123   -0.056508
 C         10.187803    1.160776    0.055540
 C         11.232837    0.243733    0.142820
 C         12.608310    0.620888    0.135539
 N         13.745183    0.880579    0.133354
 C         11.065936   -1.168854    0.247231
 N         10.987446   -2.329450    0.334062
 H          8.798304   -1.196038    0.230104
 H          7.949796    5.065383   -0.295869
 F          9.999740    6.732467   -0.388346
 F         12.421545    5.610348   -0.252361
 H         12.529829    3.047618   -0.047753
 N          1.645610   -1.218280   -0.042849
 N         -1.645621   -1.218281    0.042804
 N         -1.252496   -5.971062   -0.153846
 N          1.252488   -5.971058    0.153878
 C         -1.464120    0.140121    0.556078
 H         -2.339862    0.404566    1.152873
 H         -0.593914    0.172842    1.211540
 H         -1.351468    0.870211   -0.249749
 C          1.464111    0.140110   -0.556153
 H          1.351462    0.870219    0.249657
 H          2.339852    0.404540   -1.152957
 H          0.593903    0.172819   -1.211613
 S         -0.000003   -7.051599    0.000025
 H          7.251955   -2.874211    0.336897
 H         -7.251966   -2.874224   -0.336879
Se          5.166958    0.327100   -0.002526
Se         -5.166970    0.327096    0.002474
        79
S1: Total Energy = -3961.89835836
 C         -6.790973   -0.760121   -0.139896
 C         -6.475185   -2.125552   -0.247384
 C         -5.117215   -2.439281   -0.221890
 C         -4.225094   -1.353324   -0.093491
 C         -2.897378   -1.793784   -0.087460
 C         -2.769705   -3.201867   -0.202626
 C         -1.417734   -3.513203   -0.130600
 C         -0.715730   -4.763955   -0.091748
 C          0.715653   -4.763943    0.091626
 S         -4.306248   -4.016905   -0.333914
 C          6.790841   -0.760007    0.139899
 C          6.475062   -2.125440    0.247407
 C          5.117100   -2.439194    0.221843
 C          4.224967   -1.353256    0.093370
 C          2.897260   -1.793740    0.087300
 C          2.769605   -3.201822    0.202498
 C          1.417641   -3.513181    0.130450
 C          0.704485   -2.259821    0.011684
 C         -0.704595   -2.259831   -0.011873
 S          4.306156   -4.016831    0.333862
 C         -8.142238   -0.338879   -0.139544
 C         -8.758841    0.899909   -0.048430
 C         -8.062833    2.199976    0.065333
 O         -6.849882    2.402545    0.103959
 C         -9.105012    3.243980    0.123939
 C         -8.927315    4.616548    0.230483
 C        -10.070817    5.403595    0.267016
 C        -11.340523    4.815869    0.197580
 C        -11.517206    3.440155    0.091304
 C        -10.372781    2.634157    0.053427
 C        -10.194204    1.166185   -0.051250
 C        -11.240832    0.248534   -0.129679
 C        -12.615351    0.627139   -0.123082
 N        -13.752009    0.889660   -0.121223
 C        -11.074853   -1.164299   -0.221133
 N        -10.994727   -2.326085   -0.296664
 H         -8.806310   -1.191960   -0.229106
 H         -7.940377    5.063263    0.283567
 F         -9.986075    6.736824    0.368811
 F        -12.410443    5.621038    0.236529
 H        -12.527332    3.057584    0.042742
 C          8.142116   -0.338782    0.139602
 C          8.758811    0.899963    0.048468
 C          8.062950    2.200103   -0.065397
 O          6.850026    2.402810   -0.104146
 C          9.105243    3.243996   -0.123949
 C          8.927697    4.616580   -0.230543
 C         10.071283    5.403509   -0.266995
 C         11.340921    4.815654   -0.197429
 C         11.517454    3.439923   -0.091107
 C         10.372942    2.634044   -0.053315
 C         10.194198    1.166094    0.051381
 C         11.240707    0.248316    0.129916
 C         12.615276    0.626738    0.123424
 N         13.751973    0.889097    0.121645
 C         11.074527   -1.164490    0.221408
 N         10.994201   -2.326259    0.296985
 H          8.806150   -1.191885    0.229247
 H          7.940810    5.063395   -0.283723
 F          9.986687    6.736744   -0.368829
 F         12.410928    5.620712   -0.236302
 H         12.527535    3.057251   -0.042446
 N          1.645753   -1.227151   -0.042440
 N         -1.645877   -1.227172    0.042239
 N         -1.251531   -5.974795   -0.161786
 N          1.251471   -5.974774    0.161695
 C         -1.464812    0.133791    0.549551
 H         -2.341934    0.400669    1.142976
 H         -0.596373    0.168990    1.207021
 H         -1.350675    0.859783   -0.259609
 C          1.464678    0.133799   -0.549783
 H          1.350535    0.859809    0.259360
 H          2.341798    0.400670   -1.143215
 H          0.596238    0.168976   -1.207253
 S         -0.000023   -7.053884   -0.000030
 H          7.261142   -2.867856    0.339538
 H         -7.261259   -2.867983   -0.339454
Se          5.166841    0.322073   -0.003834
Se         -5.166990    0.321990    0.003726
