        79
S0: Total Energy = -5982.37129435
 C          6.642682   -0.751683    0.151332
 C          6.481023   -2.158829    0.280099
 C          5.132915   -2.520800    0.255032
 C          4.239806   -1.440068    0.111421
 C          2.901552   -1.881759    0.103893
 C          2.782349   -3.272157    0.233122
 C          1.415206   -3.589533    0.162483
 C          0.714914   -4.838057    0.110755
 C         -0.714867   -4.838056   -0.110845
 S          5.065819    0.080222    0.012349
 S          4.317942   -4.092224    0.379958
 C         -6.642591   -0.751640   -0.151289
 C         -6.480961   -2.158766   -0.280035
 C         -5.132846   -2.520770   -0.255002
 C         -4.239725   -1.440038   -0.111565
 C         -2.901465   -1.881741   -0.104115
 C         -2.782286   -3.272148   -0.233249
 C         -1.415140   -3.589527   -0.162700
 C         -0.716166   -2.352244   -0.026202
 C          0.716257   -2.352255    0.025829
 S         -5.065720    0.080278   -0.012540
 S         -4.317907   -4.092211   -0.379866
 C          7.925265   -0.166661    0.135025
 C          8.409720    1.129793    0.026291
 C          7.584488    2.359868   -0.093222
 O          6.360116    2.432729   -0.122529
 C          8.538055    3.483012   -0.166837
 C          8.485227    4.840021   -0.280003
 C         10.831114    3.952065   -0.161052
 C          9.874832    2.972415   -0.098794
 C          9.823754    1.505251    0.018565
 C         10.958185    0.708361    0.094266
 C         12.264841    1.279778    0.069125
 N         13.336542    1.738048    0.049826
 C         10.954815   -0.712472    0.197080
 N         10.994810   -1.875122    0.281079
 H          8.692590   -0.925852    0.230324
 H         11.908160    3.876132   -0.133656
 C         -7.925205   -0.166641   -0.134808
 C         -8.409688    1.129790   -0.026170
 C         -7.584516    2.359929    0.093136
 O         -6.360149    2.432895    0.122235
 C         -8.538153    3.483012    0.166849
 C         -8.485389    4.840013    0.279981
 C        -10.831241    3.951918    0.161412
 C         -9.874906    2.972338    0.099016
 C         -9.823770    1.505181   -0.018327
 C        -10.958138    0.708215   -0.093975
 C        -12.264845    1.279529   -0.068743
 N        -13.336565    1.737747   -0.049354
 C        -10.954706   -0.712615   -0.196911
 N        -10.994699   -1.875256   -0.281007
 H         -8.692501   -0.925903   -0.229812
 H        -11.908285    3.875917    0.134182
 N         -1.644850   -1.319631    0.037286
 N          1.644942   -1.319644   -0.037643
 N          1.248397   -6.050435    0.193921
 N         -1.248372   -6.050435   -0.193877
 C          1.459888    0.036575   -0.556203
 H          2.328746    0.296253   -1.164455
 H          0.581788    0.066930   -1.200607
 H          1.359252    0.771480    0.246628
 C         -1.459713    0.036743    0.555374
 H         -1.358945    0.771355   -0.247710
 H         -2.328607    0.296717    1.163447
 H         -0.581671    0.067252    1.199852
 C         -7.609479   -3.142680   -0.427483
 H         -8.317654   -3.077686    0.405190
 H         -8.176830   -2.967752   -1.348360
 H         -7.228570   -4.166720   -0.460973
 C          7.609460   -3.142782    0.427853
 H          8.319159   -3.076342   -0.403387
 H          8.175069   -2.969264    1.350083
 H          7.228657   -4.166939    0.458977
 S          0.000002   -7.128241    0.000088
 S         10.098171    5.523071   -0.304642
Cl          7.096024    5.848522   -0.391677
 S        -10.098379    5.522983    0.304862
Cl         -7.096240    5.848607    0.391395
        79
T1: Total Energy = -5982.32706042
 C          6.631206    0.751839   -0.150903
 C          6.459720    2.171155   -0.269562
 C          5.118012    2.520925   -0.242466
 C          4.220182    1.433589   -0.108877
 C          2.894160    1.863145   -0.097236
 C          2.765310    3.275592   -0.210500
 C          1.418451    3.586886   -0.132160
 C          0.715745    4.838839   -0.092238
 C         -0.715705    4.838838    0.092222
 S          5.065114   -0.092144   -0.023483
 S          4.301200    4.099203   -0.351964
 C         -6.631157    0.751822    0.150855
 C         -6.459675    2.171138    0.269507
 C         -5.117968    2.520914    0.242419
 C         -4.220135    1.433579    0.108846
 C         -2.894114    1.863139    0.097219
 C         -2.765267    3.275587    0.210480
 C         -1.418409    3.586884    0.132149
 C         -0.701912    2.332093    0.011087
 C          0.701958    2.332094   -0.011095
 S         -5.065062   -0.092155    0.023428
 S         -4.301162    4.099195    0.351919
 C          7.917453    0.177716   -0.134926
 C          8.405589   -1.126189   -0.031844
 C          7.580919   -2.360677    0.068333
 O          6.355610   -2.433578    0.083816
 C          8.533015   -3.483282    0.141660
 C          8.480594   -4.840830    0.243002
 C         10.825966   -3.946868    0.154804
 C          9.869503   -2.969075    0.091219
 C          9.812221   -1.501302   -0.013335
 C         10.949606   -0.695745   -0.070831
 C         12.255774   -1.264074   -0.041340
 N         13.329655   -1.718938   -0.018534
 C         10.948209    0.724751   -0.155875
 N         10.998148    1.888745   -0.224281
 H          8.682565    0.939094   -0.219999
 H         11.903028   -3.869216    0.138950
 C         -7.917409    0.177707    0.134889
 C         -8.405578   -1.126190    0.031842
 C         -7.580955   -2.360706   -0.068370
 O         -6.355650   -2.433656   -0.083881
 C         -8.533093   -3.483277   -0.141688
 C         -8.480723   -4.840825   -0.243052
 C        -10.826060   -3.946784   -0.154758
 C         -9.869562   -2.969025   -0.091189
 C         -9.812222   -1.501256    0.013394
 C        -10.949570   -0.695654    0.070982
 C        -12.255766   -1.263920    0.041551
 N        -13.329671   -1.718730    0.018796
 C        -10.948100    0.724839    0.156087
 N        -10.997957    1.888833    0.224550
 H         -8.682510    0.939100    0.219943
 H        -11.903119   -3.869096   -0.138868
 N         -1.644327    1.297199   -0.038056
 N          1.644375    1.297202    0.038046
 N          1.252249    6.048053   -0.163054
 N         -1.252212    6.048051    0.163034
 C          1.463749   -0.060019    0.557106
 H          2.339532   -0.321951    1.154317
 H          0.593036   -0.089543    1.211825
 H          1.352080   -0.792558   -0.246227
 C         -1.463696   -0.060021   -0.557118
 H         -1.352034   -0.792560    0.246215
 H         -2.339474   -0.321952   -1.154338
 H         -0.592979   -0.089542   -1.211830
 C         -7.592047    3.150449    0.406890
 H         -8.286187    3.090432   -0.438517
 H         -8.175699    2.966380    1.316024
 H         -7.215085    4.175651    0.455556
 C          7.592085    3.150469   -0.406976
 H          8.286372    3.090309    0.438298
 H          8.175575    2.966533   -1.316243
 H          7.215132    4.175685   -0.455414
 S          0.000016    7.129792   -0.000019
 S         10.093867   -5.524665    0.278243
Cl          7.090041   -5.851020    0.332864
 S        -10.094020   -5.524604   -0.278250
Cl         -7.090207   -5.851061   -0.332974
        79
S1: Total Energy = -5982.31094077
 C          6.632805    0.754458   -0.149799
 C          6.467327    2.166356   -0.269408
 C          5.119722    2.521736   -0.242902
 C          4.225845    1.437817   -0.108052
 C          2.893910    1.872475   -0.098598
 C          2.769036    3.278958   -0.215775
 C          1.417644    3.591994   -0.138154
 C          0.715471    4.842614   -0.095983
 C         -0.715529    4.842618    0.095959
 S          5.064553   -0.086728   -0.020294
 S          4.306384    4.099299   -0.356938
 C         -6.632883    0.754492    0.149811
 C         -6.467401    2.166389    0.269418
 C         -5.119794    2.521763    0.242888
 C         -4.225923    1.437841    0.108024
 C         -2.893986    1.872491    0.098563
 C         -2.769104    3.278972    0.215747
 C         -1.417710    3.592002    0.138118
 C         -0.704418    2.339755    0.013985
 C          0.704344    2.339750   -0.014041
 S         -5.064640   -0.086695    0.020223
 S         -4.306446    4.099322    0.356915
 C          7.922205    0.172962   -0.133250
 C          8.405183   -1.127174   -0.030071
 C          7.577835   -2.360328    0.073323
 O          6.352253   -2.430064    0.092098
 C          8.527713   -3.483742    0.144976
 C          8.471835   -4.841237    0.247351
 C         10.820331   -3.954440    0.152771
 C          9.866215   -2.972811    0.090865
 C          9.815163   -1.507636   -0.013861
 C         10.953082   -0.703608   -0.073413
 C         12.258624   -1.273191   -0.045814
 N         13.332207   -1.729419   -0.024592
 C         10.952437    0.716689   -0.158218
 N         11.001277    1.881028   -0.226433
 H          8.688396    0.933494   -0.219215
 H         11.897533   -3.879673    0.134079
 C         -7.922274    0.172979    0.133298
 C         -8.405201   -1.127176    0.030134
 C         -7.577779   -2.360279   -0.073270
 O         -6.352191   -2.429940   -0.092003
 C         -8.527591   -3.483746   -0.144962
 C         -8.471632   -4.841236   -0.247361
 C        -10.820182   -3.954577   -0.152796
 C         -9.866123   -2.972893   -0.090855
 C         -9.815160   -1.507718    0.013915
 C        -10.953134   -0.703770    0.073493
 C        -12.258636   -1.273444    0.045847
 N        -13.332185   -1.729749    0.024593
 C        -10.952597    0.716523    0.158370
 N        -11.001556    1.880854    0.226642
 H         -8.688483    0.933492    0.219267
 H        -11.897388   -3.879874   -0.134116
 N         -1.644542    1.306276   -0.038505
 N          1.644462    1.306265    0.038446
 N          1.251413    6.052702   -0.169357
 N         -1.251461    6.052708    0.169351
 C          1.464383   -0.053817    0.550569
 H          2.341955   -0.318853    1.143508
 H          0.595894   -0.086167    1.207932
 H          1.350429   -0.781670   -0.256565
 C         -1.464482   -0.053782   -0.550704
 H         -1.350535   -0.781678    0.256392
 H         -2.342058   -0.318777   -1.143657
 H         -0.595995   -0.086107   -1.208069
 C         -7.597950    3.148180    0.409209
 H         -8.300346    3.082297   -0.428662
 H         -8.172627    2.972414    1.325628
 H         -7.219665    4.173373    0.445776
 C          7.597884    3.148142   -0.409171
 H          8.300293    3.082216    0.428685
 H          8.172543    2.972409   -1.325608
 H          7.219609    4.173340   -0.445687
 S         -0.000022    7.133357   -0.000004
 S         10.083793   -5.530054    0.278935
Cl          7.078825   -5.847591    0.341604
 S        -10.083550   -5.530145   -0.278987
Cl         -7.078562   -5.847507   -0.341610
