        85
S0: Total Energy = -5340.88194141
 C         -6.642598    0.749622    0.155867
 C         -6.481267    2.155312    0.289840
 C         -5.132873    2.518957    0.261126
 C         -4.239636    1.439863    0.113493
 C         -2.901271    1.882384    0.105783
 C         -2.782613    3.272352    0.237257
 C         -1.415268    3.590692    0.165139
 C         -0.714811    4.839057    0.112402
 C          0.714807    4.839057   -0.112372
 S         -5.065815   -0.080397    0.007794
 S         -4.318929    4.090795    0.386664
 C          6.642588    0.749612   -0.155901
 C          6.481257    2.155302   -0.289869
 C          5.132864    2.518950   -0.261135
 C          4.239626    1.439857   -0.113505
 C          2.901263    1.882380   -0.105786
 C          2.782607    3.272350   -0.237248
 C          1.415262    3.590692   -0.165119
 C          0.716148    2.354184   -0.026585
 C         -0.716156    2.354184    0.026596
 S          5.065803   -0.080405   -0.007821
 S          4.318924    4.090792   -0.386650
 C         -7.926154    0.163145    0.148654
 C         -8.405429   -1.133364    0.034062
 C         -7.585651   -2.351717   -0.130969
 O         -6.361070   -2.431850   -0.184129
 C         -8.522329   -3.491774   -0.224291
 C         -8.222399   -4.836627   -0.389689
 C         -9.274006   -5.750859   -0.455809
 C        -10.588201   -5.282576   -0.353714
 C        -10.901502   -3.929694   -0.186300
 C         -9.842356   -3.020482   -0.120478
 C         -9.809181   -1.540087    0.049504
 C        -10.938694   -0.748561    0.196447
 C        -12.270890   -1.263202    0.200069
 N        -13.377897   -1.627391    0.210665
 C        -10.918796    0.668653    0.366110
 N        -10.961702    1.825250    0.507787
 H         -8.690592    0.922561    0.256647
 H         -7.189652   -5.161997   -0.465358
 H        -11.938019   -3.633182   -0.114472
 C          7.926144    0.163135   -0.148684
 C          8.405425   -1.133371   -0.034080
 C          7.585657   -2.351729    0.130973
 O          6.361078   -2.431872    0.184139
 C          8.522346   -3.491776    0.224315
 C          8.222428   -4.836627    0.389742
 C          9.274042   -5.750850    0.455876
 C         10.588233   -5.282558    0.353765
 C         10.901523   -3.929677    0.186321
 C          9.842368   -3.020475    0.120486
 C          9.809180   -1.540084   -0.049528
 C         10.938682   -0.748550   -0.196507
 C         12.270884   -1.263176   -0.200139
 N         13.377896   -1.627350   -0.210743
 C         10.918764    0.668659   -0.366211
 N         10.961647    1.825253   -0.507917
 H          8.690582    0.922550   -0.256679
 H          7.189684   -5.162005    0.465422
 H         11.938036   -3.633158    0.114482
 N          1.644418    1.321012    0.037323
 N         -1.644427    1.321016   -0.037328
 N         -1.247983    6.051555    0.196640
 N          1.247980    6.051555   -0.196601
 C         -1.458549   -0.033253   -0.560105
 H         -2.326133   -0.290914   -1.171122
 H         -0.578981   -0.061544   -1.202654
 H         -1.359425   -0.770998    0.240402
 C          1.458542   -0.033251    0.560118
 H          1.359422   -0.771006   -0.240381
 H          2.326124   -0.290903    1.171140
 H          0.578973   -0.061537    1.202663
 C          7.609798    3.139369   -0.437056
 H          8.260137    3.141218    0.444684
 H          8.239894    2.908409   -1.302360
 H          7.224049    4.153771   -0.567493
 C         -7.609811    3.139370    0.437061
 H         -8.260437    3.140914   -0.444464
 H         -8.239616    2.908636    1.302642
 H         -7.224077    4.153833    0.567064
 S         -0.000001    7.129300    0.000022
Cl         11.904435   -6.440212    0.438960
Cl        -11.904394   -6.440242   -0.438890
 H         -9.085814   -6.810867   -0.584689
 H          9.085859   -6.810857    0.584779
        85
T1: Total Energy = -5340.83712998
 C         -6.632916    0.750481    0.145607
 C         -6.460601    2.169559    0.262504
 C         -5.118615    2.518795    0.236085
 C         -4.220830    1.431318    0.104009
 C         -2.894631    1.860673    0.093863
 C         -2.765759    3.272988    0.206599
 C         -1.418654    3.584356    0.130232
 C         -0.715922    4.836246    0.091562
 C          0.715927    4.836274   -0.090327
 S         -5.066598   -0.094461    0.022505
 S         -4.301671    4.096843    0.345924
 C          6.632903    0.750504   -0.145495
 C          6.460597    2.169621   -0.261944
 C          5.118609    2.518849   -0.235522
 C          4.220812    1.431329   -0.103884
 C          2.894616    1.860687   -0.093643
 C          2.765756    3.273043   -0.205887
 C          1.418651    3.584392   -0.129438
 C          0.701931    2.329656   -0.010030
 C         -0.701944    2.329657    0.010371
 S          5.066573   -0.094477   -0.022808
 S          4.301677    4.096937   -0.344872
 C         -7.920114    0.177190    0.123206
 C         -8.403662   -1.127932    0.026303
 C         -7.581718   -2.358702   -0.030949
 O         -6.356006   -2.439975   -0.037816
 C         -8.516570   -3.502143   -0.072659
 C         -8.217636   -4.855375   -0.121503
 C         -9.271442   -5.771327   -0.150934
 C        -10.583947   -5.291575   -0.130676
 C        -10.896801   -3.927550   -0.083482
 C         -9.836990   -3.018407   -0.054033
 C         -9.799601   -1.529679   -0.007879
 C        -10.934117   -0.718288   -0.018615
 C        -12.266038   -1.227084   -0.043003
 N        -13.374805   -1.588578   -0.060780
 C        -10.914452    0.707124   -0.022349
 N        -10.963740    1.872954   -0.031204
 H         -8.683375    0.940457    0.200052
 H         -7.184552   -5.188314   -0.135751
 H        -11.933724   -3.624095   -0.069958
 C          7.920103    0.177215   -0.123142
 C          8.403657   -1.127933   -0.026620
 C          7.581720   -2.358727    0.030244
 O          6.356008   -2.440015    0.036965
 C          8.516579   -3.502168    0.071763
 C          8.217655   -4.855415    0.120262
 C          9.271468   -5.771363    0.149572
 C         10.583970   -5.291593    0.129546
 C         10.896813   -3.927553    0.082703
 C          9.836996   -3.018415    0.053371
 C          9.799598   -1.529676    0.007567
 C         10.934110   -0.718285    0.018568
 C         12.266030   -1.227086    0.042919
 N         13.374795   -1.588589    0.060675
 C         10.914447    0.707127    0.022611
 N         10.963744    1.872954    0.031725
 H          8.683363    0.940517   -0.199632
 H          7.184574   -5.188368    0.134340
 H         11.933735   -3.624084    0.069345
 N          1.644418    1.294611    0.039582
 N         -1.644440    1.294636   -0.039597
 N         -1.252586    6.045465    0.161624
 N          1.252599    6.045514   -0.159960
 C         -1.463119   -0.061784   -0.559851
 H         -2.337897   -0.322973   -1.158944
 H         -0.591191   -0.090758   -1.213018
 H         -1.352781   -0.795408    0.242777
 C          1.463079   -0.062001    0.559329
 H          1.352725   -0.795321   -0.243576
 H          2.337858   -0.323428    1.158317
 H          0.591156   -0.091211    1.212493
 C          7.591858    3.150386   -0.399480
 H          8.300964    3.074443    0.431820
 H          8.158550    2.982612   -1.322660
 H          7.215236    4.176634   -0.422922
 C         -7.591849    3.150278    0.400480
 H         -8.301050    3.074603   -0.430764
 H         -8.158435    2.982202    1.323670
 H         -7.215227    4.176519    0.424210
 S          0.000011    7.127298    0.001028
Cl         11.904646   -6.447948    0.164302
Cl        -11.904614   -6.447936   -0.165586
 H         -9.084310   -6.838594   -0.188417
 H          9.084343   -6.838641    0.186788
        85
S1: Total Energy = -5340.82096416
 C         -6.632588    0.753057    0.145037
 C         -6.467912    2.163571    0.267015
 C         -5.119858    2.520256    0.240004
 C         -4.225862    1.437292    0.104341
 C         -2.893724    1.872706    0.095904
 C         -2.769581    3.278875    0.214548
 C         -1.417912    3.592638    0.137769
 C         -0.715552    4.843143    0.095963
 C          0.715600    4.843152   -0.095944
 S         -5.064541   -0.086815    0.009606
 S         -4.307661    4.098176    0.354619
 C          6.632682    0.753140   -0.145022
 C          6.467993    2.163656   -0.266966
 C          5.119933    2.520320   -0.239980
 C          4.225948    1.437341   -0.104362
 C          2.893804    1.872738   -0.095920
 C          2.769647    3.278909   -0.214538
 C          1.417974    3.592656   -0.137767
 C          0.704463    2.340977   -0.013422
 C         -0.704388    2.340970    0.013398
 S          5.064645   -0.086758   -0.009666
 S          4.307717    4.098230   -0.354595
 C         -7.923507    0.169808    0.141039
 C         -8.401708   -1.129660    0.036491
 C         -7.577340   -2.350763   -0.121512
 O         -6.351926   -2.424255   -0.169674
 C         -8.509291   -3.492027   -0.214264
 C         -8.207203   -4.835813   -0.374653
 C         -9.257942   -5.753610   -0.441201
 C        -10.571516   -5.284207   -0.343577
 C        -10.888535   -3.930854   -0.180668
 C         -9.831456   -3.017797   -0.114724
 C         -9.801235   -1.542554    0.051337
 C        -10.935759   -0.744029    0.198460
 C        -12.265556   -1.258082    0.197758
 N        -13.372960   -1.625241    0.203951
 C        -10.917680    0.670034    0.373646
 N        -10.966347    1.826959    0.521632
 H         -8.686816    0.930870    0.239907
 H         -7.173721   -5.160052   -0.446390
 H        -11.925672   -3.635676   -0.112073
 C          7.923595    0.169881   -0.141025
 C          8.401738   -1.129608   -0.036501
 C          7.577282   -2.350649    0.121514
 O          6.351862   -2.424044    0.169679
 C          8.509149   -3.491979    0.214275
 C          8.206966   -4.835741    0.374685
 C          9.257641   -5.753612    0.441244
 C         10.571248   -5.284304    0.343617
 C         10.888363   -3.930976    0.180689
 C          9.831349   -3.017845    0.114729
 C          9.801239   -1.542604   -0.051360
 C         10.935841   -0.744192   -0.198517
 C         12.265581   -1.258394   -0.197806
 N         13.372939   -1.625691   -0.203988
 C         10.917925    0.669866   -0.373756
 N         10.966788    1.826774   -0.521813
 H          8.686923    0.930927   -0.239861
 H          7.173461   -5.159906    0.446427
 H         11.925521   -3.635870    0.112094
 N          1.644079    1.307059    0.040433
 N         -1.643994    1.307044   -0.040480
 N         -1.251435    6.053302    0.169296
 N          1.251472    6.053318   -0.169246
 C         -1.462710   -0.051657   -0.555502
 H         -2.338074   -0.314746   -1.152627
 H         -0.591639   -0.082696   -1.209494
 H         -1.352037   -0.781689    0.250192
 C          1.462801   -0.051662    0.555403
 H          1.352167   -0.781671   -0.250317
 H          2.338151   -0.314755    1.152547
 H          0.591709   -0.082736    1.209365
 C          7.598865    3.146016   -0.401778
 H          8.252993    3.131301    0.477230
 H          8.225624    2.927156   -1.272973
 H          7.216875    4.164280   -0.514155
 C         -7.598797    3.145906    0.401904
 H         -8.253028    3.131130   -0.477024
 H         -8.225446    2.927065    1.273185
 H         -7.216828    4.164188    0.514188
 S          0.000014    7.133879    0.000043
Cl         11.886978   -6.443657    0.428794
Cl        -11.887328   -6.443468   -0.428733
 H         -9.068410   -6.813700   -0.566535
 H          9.068033   -6.813687    0.566593
