       155
S0: Total Energy = -5262.60249902
 O         -9.992325   -1.687408    2.199305
 O        -10.230979   -6.189286    1.377135
 C         -9.405213   -2.714864    1.886571
 C         -7.950721   -2.750693    1.604475
 C         -7.155977   -1.608704    1.669845
 H         -7.628957   -0.668728    1.935166
 C         -5.762470   -1.644473    1.401903
 H         -5.178318   -0.731338    1.461271
 C         -5.175587   -2.854103    1.067669
 C         -5.290074   -5.186854    0.651448
 C         -5.992092   -4.008915    1.003670
 C         -7.361177   -3.988204    1.261095
 C         -8.069847   -5.206762    1.161747
 C         -9.525041   -5.190840    1.434791
 C         -5.992599   -6.376497    0.554571
 H         -5.497481   -7.303996    0.285478
 C         -7.388463   -6.370413    0.814367
 H         -7.952272   -7.294904    0.743110
 N        -10.089524   -3.945278    1.775362
 C        -11.534355   -3.956620    2.041171
 H        -12.067695   -4.330074    1.164278
 H        -11.751552   -4.614564    2.886040
 H        -11.839658   -2.938117    2.266733
 O          8.987952   -6.367487   -2.973227
 O          9.265768   -1.900040   -1.991255
 C          8.417207   -5.355009   -2.589342
 C          6.979786   -5.334790   -2.228238
 C          6.181753   -6.473987   -2.301938
 H          6.637786   -7.400479   -2.635267
 C          4.804756   -6.453368   -1.956942
 H          4.216655   -7.362691   -2.028244
 C          4.240096   -5.261642   -1.533620
 C          4.378722   -2.950523   -1.014835
 C          5.059258   -4.109495   -1.460503
 C          6.411185   -4.115029   -1.796822
 C          7.123822   -2.899968   -1.685175
 C          8.559975   -2.898793   -2.045069
 C          5.085038   -1.763510   -0.908474
 H          4.605576   -0.849010   -0.574563
 C          6.463318   -1.754482   -1.248333
 H          7.030421   -0.832803   -1.168345
 N          9.105612   -4.127851   -2.466534
 C         10.533185   -4.100612   -2.812261
 H         10.701133   -3.411782   -3.643656
 H         11.113776   -3.756430   -1.953590
 H         10.827837   -5.108925   -3.091398
 C         -3.818499   -3.323836    0.737217
 C         -1.582022   -3.364846    0.322885
 C         -1.658836   -4.779404    0.025295
 C         -3.890597   -4.760745    0.473841
 C         -0.348001   -2.670423    0.237675
 C         -0.522064   -5.496025   -0.412268
 C          0.693904   -4.791391   -0.557104
 C          0.783139   -3.384348   -0.229459
 C          2.992519   -3.387363   -0.778529
 C          2.905146   -4.811190   -1.101623
 N         -2.854665   -5.462426    0.117726
 N         -2.709088   -2.648385    0.659738
 N          1.802187   -5.492055   -0.987284
 N          1.973537   -2.703057   -0.344849
 C         -0.606411   -6.950744   -0.719639
 C         -0.988869   -7.868260    0.270976
 C         -0.303625   -7.432347   -2.002394
 C         -1.060198   -9.231918   -0.011849
 H         -1.224191   -7.509390    1.268059
 C         -0.387189   -8.794711   -2.288479
 H         -0.008404   -6.733835   -2.778912
 C         -0.762477   -9.699865   -1.293502
 H         -1.350401   -9.928709    0.770054
 H         -0.156892   -9.148802   -3.289819
 H         -0.822625  -10.762021   -1.515295
 C         -0.270292   -1.255831    0.615175
 C         -0.751521   -0.667192    1.763397
 S          0.393357   -0.019632   -0.442128
 C         -0.620289    0.757477    1.782658
 C         -0.031713    1.269860    0.656888
 C          0.259204    2.684198    0.356005
 C         -0.767425    3.547850   -0.079097
 C          1.563668    3.200954    0.499128
 C         -0.492884    4.942709   -0.349169
 N         -2.031209    3.019079   -0.241226
 C          1.847951    4.585068    0.186555
 N          2.550247    2.349462    0.951599
 C          0.817512    5.460499   -0.227529
 N         -1.503903    5.805832   -0.718423
 C         -2.952268    3.856720   -0.620102
 N          3.132526    5.081746    0.270515
 C          3.742868    2.861446    1.046653
 C          1.104682    6.890215   -0.526807
 C         -2.687137    5.279619   -0.846417
 C         -4.381391    3.614347   -0.884632
 C          4.042898    4.248377    0.683153
 C          4.996042    2.227781    1.492443
 C          0.823437    7.427357   -1.792632
 C          1.662067    7.727851    0.451736
 C         -3.955342    5.922379   -1.231697
 C         -5.229555    2.519454   -0.865653
 C         -4.911529    4.878390   -1.237698
 C          5.485796    4.468030    0.883519
 C          5.983875    3.233530    1.365719
 C          5.372555    0.980877    1.964707
 C          1.099111    8.764897   -2.074445
 H          0.395037    6.790362   -2.559893
 C          1.924803    9.068794    0.173764
 H          1.881530    7.326624    1.436033
 C         -4.365333    7.202716   -1.564635
 C         -6.596697    2.706289   -1.199095
 H         -4.866933    1.529648   -0.607324
 C         -6.250860    5.076432   -1.566374
 C          6.367410    5.524022    0.722878
 C          7.323131    3.028843    1.690688
 H          4.648927    0.181079    2.086228
 C          6.734309    0.758452    2.300178
 C          1.647570    9.591230   -1.091310
 H          0.883105    9.161553   -3.062860
 H          2.348433    9.704916    0.946331
 H         -3.667842    8.034111   -1.574015
 C         -5.728031    7.419803   -1.898911
 C         -7.109640    3.954565   -1.543691
 H         -7.272891    1.857657   -1.190725
 C         -6.660696    6.385891   -1.904116
 C          7.735996    5.328736    1.046903
 H          6.031625    6.488788    0.356433
 C          8.215814    4.111142    1.522322
 C          7.699726    1.753913    2.169841
 H          7.044066   -0.212234    2.673227
 H          1.857400   10.634935   -1.309441
 H         -6.064839    8.417420   -2.161345
 C         -8.536662    4.150137   -1.894476
 C         -8.082874    6.602366   -2.254841
 H          8.438997    6.146397    0.925151
 C          9.640787    3.899089    1.865149
 C          9.120767    1.523974    2.525231
 O         -9.346518    3.232632   -1.901821
 N         -8.919605    5.468827   -2.225121
 O         -8.540863    7.695780   -2.560090
 O         10.494588    4.769274    1.755442
 N          9.992258    2.619345    2.338893
 O          9.527947    0.453705    2.956801
 C        -10.325190    5.710280   -2.578143
 C         11.411695    2.434579    2.670181
 H        -10.760832    6.435652   -1.887245
 H        -10.388427    6.114199   -3.591189
 H        -10.852435    4.761923   -2.514519
 H         11.702220    3.130618    3.460725
 H         11.545432    1.408094    3.001705
 H         12.025134    2.633925    1.788777
 O         -1.255373   -1.358737    2.825774
 O         -1.052179    1.521993    2.831476
 C         -2.010036   -0.529524    3.722226
 H         -2.986507   -0.302019    3.275824
 H         -2.157803   -1.119643    4.629362
 C         -1.256397    0.754725    4.028132
 H         -0.286125    0.523617    4.486951
 H         -1.830392    1.392473    4.704196
       155
T1: Total Energy = -5262.55674139
 O        -10.382867   -2.506845    0.295267
 O        -10.048609   -7.052558    0.768043
 C         -9.654090   -3.487087    0.381855
 C         -8.176944   -3.392768    0.339773
 C         -7.514048   -2.177222    0.190942
 H         -8.110836   -1.275284    0.100673
 C         -6.096684   -2.089510    0.152560
 H         -5.622737   -1.120556    0.026763
 C         -5.346520   -3.249754    0.269080
 C         -5.169527   -5.595370    0.511453
 C         -6.035855   -4.480098    0.415419
 C         -7.420379   -4.582756    0.453512
 C         -7.984296   -5.871962    0.599071
 C         -9.459226   -5.986628    0.642316
 C         -5.728411   -6.854674    0.649379
 H         -5.109409   -7.743312    0.722700
 C         -7.144354   -6.977355    0.693733
 H         -7.594525   -7.958806    0.802828
 N        -10.189957   -4.786084    0.531295
 C        -11.651217   -4.927861    0.577319
 H        -11.988674   -5.563503   -0.244747
 H        -11.948877   -5.393060    1.519873
 H        -12.085184   -3.935010    0.490712
 O          9.281221   -5.696881   -2.540701
 O          8.886242   -1.141469   -2.843818
 C          8.566137   -4.710432   -2.420449
 C          7.148458   -4.796040   -1.997193
 C          6.532913   -6.009094   -1.702886
 H          7.118818   -6.918438   -1.788765
 C          5.172194   -6.086099   -1.296836
 H          4.731528   -7.053231   -1.076054
 C          4.437940   -4.917141   -1.190887
 C          4.222912   -2.567362   -1.347074
 C          5.076341   -3.691456   -1.493649
 C          6.403231   -3.598287   -1.891368
 C          6.924281   -2.311243   -2.163681
 C          8.337762   -2.205692   -2.585071
 C          4.742377   -1.309744   -1.617526
 H          4.136187   -0.414514   -1.522107
 C          6.098519   -1.198709   -2.025797
 H          6.515457   -0.219889   -2.239740
 N          9.059664   -3.412967   -2.682950
 C         10.461569   -3.280071   -3.100513
 H         10.512563   -2.822078   -4.091257
 H         10.998722   -2.641914   -2.395157
 H         10.898778   -4.275063   -3.120759
 C         -3.920324   -3.607073    0.288998
 C         -1.654549   -3.431350    0.257345
 C         -1.543848   -4.868852    0.289021
 C         -3.811003   -5.028761    0.418928
 C         -0.453119   -2.618828    0.201233
 C         -0.270646   -5.511941    0.120251
 C          0.866621   -4.708686   -0.212171
 C          0.764477   -3.267725   -0.237687
 C          2.937334   -3.122486   -0.912682
 C          3.056829   -4.544837   -0.825990
 N         -2.649657   -5.656690    0.398551
 N         -2.857805   -2.816421    0.207008
 N          2.051511   -5.327944   -0.476154
 N          1.804703   -2.493795   -0.604122
 C         -0.163463   -6.981375    0.229871
 C         -0.682650   -7.644659    1.359300
 C          0.451208   -7.755173   -0.773133
 C         -0.573480   -9.026478    1.489477
 H         -1.158001   -7.065783    2.143584
 C          0.537306   -9.140360   -0.651804
 H          0.846369   -7.266514   -1.655550
 C          0.032726   -9.781612    0.481963
 H         -0.965542   -9.515380    2.377216
 H          1.001512   -9.720293   -1.444924
 H          0.109418  -10.861211    0.579127
 C         -0.472257   -1.239240    0.536393
 C         -1.343843   -0.584252    1.445961
 S          0.669437   -0.050599   -0.113936
 C         -1.193690    0.812944    1.489104
 C         -0.167114    1.287835    0.676634
 C          0.210328    2.677929    0.473405
 C         -0.785521    3.640992    0.152095
 C          1.557085    3.118935    0.584362
 C         -0.446903    5.041201    0.030159
 N         -2.064557    3.195604   -0.075542
 C          1.894744    4.513292    0.402790
 N          2.518645    2.191156    0.900149
 C          0.893182    5.480704    0.146550
 N         -1.422354    5.987121   -0.201981
 C         -2.957011    4.112308   -0.328794
 N          3.204040    4.938114    0.467263
 C          3.744811    2.629722    0.979432
 C          1.242291    6.918623   -0.003056
 C         -2.633057    5.536342   -0.365977
 C         -4.394096    3.965044   -0.610400
 C          4.094295    4.027713    0.741842
 C          4.981944    1.896344    1.291951
 C          0.915502    7.618011   -1.175850
 C          1.905989    7.604532    1.026741
 C         -3.874845    6.279575   -0.642967
 C         -5.289450    2.914250   -0.729730
 C         -4.874218    5.286683   -0.779794
 C          5.554228    4.163007    0.886551
 C          6.012377    2.864830    1.215758
 C          5.319209    0.590798    1.611116
 C          1.249672    8.964170   -1.317343
 H          0.406753    7.099953   -1.982306
 C          2.226277    8.954594    0.890673
 H          2.162125    7.078004    1.940490
 C         -4.231813    7.609169   -0.793999
 C         -6.649582    3.201133   -1.016351
 H         -4.968279    1.883965   -0.612832
 C         -6.205915    5.582780   -1.060661
 C          6.478626    5.189342    0.785086
 C          7.353734    2.567661    1.444766
 H          4.565599   -0.186871    1.680280
 C          6.682814    0.274332    1.847960
 C          1.902610    9.638407   -0.283237
 H          0.997669    9.486698   -2.236230
 H          2.731249    9.471675    1.702178
 H         -3.499549    8.404602   -0.699545
 C         -5.586483    7.926168   -1.078178
 C         -7.111877    4.504843   -1.180065
 H         -7.361630    2.388321   -1.115570
 C         -6.562268    6.941902   -1.211455
 C          7.850065    4.900550    1.013677
 H          6.174450    6.200700    0.535172
 C          8.290461    3.620102    1.337675
 C          7.689212    1.233796    1.769253
 H          6.961856   -0.743829    2.098374
 H          2.157722   10.689142   -0.391557
 H         -5.882009    8.963371   -1.198394
 C         -8.531965    4.804983   -1.479838
 C         -7.976858    7.262352   -1.510884
 H          8.586486    5.693775    0.936111
 C          9.718497    3.309281    1.578562
 C          9.113264    0.903482    2.016558
 O         -9.380684    3.931130   -1.597800
 N         -8.860897    6.170953   -1.623747
 O         -8.389939    8.405092   -1.658690
 O         10.608190    4.147287    1.513132
 N         10.028330    1.972342    1.897471
 O          9.487651   -0.224401    2.308629
 C        -10.257755    6.515817   -1.921334
 C         11.451870    1.689906    2.126403
 H        -10.657469    7.155488   -1.131117
 H        -10.311280    7.058630   -2.867783
 H        -10.823930    5.589997   -1.982502
 H         11.817428    2.283365    2.967786
 H         11.550917    0.628836    2.340374
 H         12.027787    1.955548    1.237223
 O         -2.161008   -1.248018    2.292228
 O         -1.917626    1.605546    2.326347
 C         -3.149699   -0.405928    2.911501
 H         -3.937411   -0.187357    2.181569
 H         -3.567980   -0.987912    3.734547
 C         -2.510236    0.876812    3.414435
 H         -1.740764    0.651065    4.163110
 H         -3.257349    1.540483    3.854107
       155
S1: Total Energy = -5262.54237877
 O        -10.019500   -1.320053    2.938453
 O        -10.552845   -5.732874    1.822153
 C         -9.513351   -2.350623    2.516913
 C         -8.081202   -2.437076    2.135837
 C         -7.226141   -1.341712    2.225641
 H         -7.631441   -0.400832    2.582864
 C         -5.856252   -1.426169    1.863121
 H         -5.224181   -0.547024    1.941589
 C         -5.357618   -2.636417    1.409643
 C         -5.624832   -4.922815    0.832021
 C         -6.235954   -3.742264    1.318222
 C         -7.582607   -3.673320    1.668627
 C         -8.361536   -4.843912    1.529756
 C         -9.794463   -4.776405    1.902167
 C         -6.395726   -6.065103    0.696526
 H         -5.971391   -6.992319    0.325235
 C         -7.769587   -6.009813    1.052432
 H         -8.386643   -6.896657    0.951883
 N        -10.268009   -3.533553    2.367419
 C        -11.692209   -3.493389    2.728661
 H        -12.300056   -3.762602    1.862110
 H        -11.891310   -4.209105    3.529600
 H        -11.924691   -2.483578    3.056575
 O          8.402306   -6.532356   -3.581458
 O          8.880623   -2.103582   -2.505367
 C          7.888535   -5.510197   -3.148081
 C          6.468327   -5.450246   -2.721964
 C          5.630047   -6.560149   -2.785404
 H          6.038744   -7.492771   -3.160010
 C          4.271721   -6.502750   -2.375365
 H          3.651152   -7.390773   -2.438377
 C          3.768620   -5.303708   -1.898866
 C          4.013397   -3.010534   -1.332658
 C          4.628084   -4.180722   -1.839003
 C          5.962522   -4.223493   -2.236655
 C          6.721674   -3.037522   -2.124755
 C          8.141753   -3.076691   -2.551167
 C          4.765740   -1.852525   -1.220636
 H          4.339821   -0.933391   -0.830895
 C          6.126877   -1.882384   -1.624335
 H          6.730867   -0.984908   -1.542276
 N          8.624308   -4.312130   -3.026423
 C         10.035895   -4.324377   -3.435799
 H         10.190291   -3.619019   -4.255721
 H         10.665323   -4.024139   -2.595359
 H         10.281868   -5.334099   -3.754015
 C         -4.053753   -3.144762    0.951626
 C         -1.862171   -3.268767    0.369610
 C         -2.026371   -4.653424   -0.006508
 C         -4.220438   -4.554575    0.589519
 C         -0.608447   -2.632400    0.209371
 C         -0.949680   -5.397153   -0.554141
 C          0.292369   -4.741107   -0.743124
 C          0.455694   -3.358483   -0.371444
 C          2.628964   -3.407369   -1.037783
 C          2.473460   -4.822030   -1.391868
 N         -3.247319   -5.279014    0.118263
 N         -2.916421   -2.519596    0.842007
 N          1.350400   -5.465122   -1.247913
 N          1.655518   -2.704997   -0.532430
 C         -1.120235   -6.825550   -0.922068
 C         -1.567556   -7.759527    0.027018
 C         -0.835558   -7.267977   -2.224455
 C         -1.716332   -9.102157   -0.315544
 H         -1.785538   -7.432452    1.038262
 C         -1.004410   -8.607512   -2.570178
 H         -0.494702   -6.556628   -2.969211
 C         -1.440145   -9.529759   -1.616139
 H         -2.050906   -9.814063    0.433884
 H         -0.792377   -8.931142   -3.585380
 H         -1.563636  -10.575312   -1.884560
 C         -0.417254   -1.246011    0.622347
 C         -0.740426   -0.654591    1.816590
 S          0.277805   -0.019352   -0.494224
 C         -0.462391    0.742867    1.834589
 C          0.069745    1.251462    0.620747
 C          0.469101    2.642791    0.351360
 C         -0.483938    3.551964   -0.131479
 C          1.807948    3.031105    0.599902
 C         -0.097706    4.928879   -0.382384
 N         -1.765119    3.103112   -0.341982
 C          2.189754    4.410671    0.339718
 N          2.679460    2.100729    1.066552
 C          1.246629    5.344297   -0.140464
 N         -1.008884    5.837217   -0.827702
 C         -2.609047    4.012044   -0.790010
 N          3.492689    4.816893    0.539747
 C          3.926789    2.534445    1.262717
 C          1.644094    6.757556   -0.393429
 C         -2.234411    5.380709   -1.029599
 C         -4.039972    3.858928   -1.119485
 C          4.314763    3.899497    0.986864
 C          5.093176    1.812010    1.736407
 C          1.490029    7.331276   -1.665339
 C          2.180850    7.548698    0.634456
 C         -3.420222    6.107028   -1.505460
 C         -4.969093    2.831336   -1.113108
 C         -4.461380    5.143576   -1.538075
 C          5.758817    4.037539    1.291286
 C          6.158880    2.759290    1.733908
 C          5.385606    0.513494    2.155757
 C          1.867532    8.652434   -1.904317
 H          1.075387    6.734235   -2.471233
 C          2.548544    8.873429    0.399716
 H          2.307358    7.120017    1.623495
 C         -3.718300    7.403473   -1.896176
 C         -6.301370    3.105564   -1.522746
 H         -4.698404    1.825785   -0.805817
 C         -5.759335    5.429227   -1.941259
 C          6.702169    5.051572    1.240101
 C          7.458635    2.459133    2.123876
 H          4.618477   -0.254351    2.183566
 C          6.704158    0.196391    2.554866
 C          2.395924    9.430287   -0.871807
 H          1.746830    9.074723   -2.898696
 H          2.956897    9.470129    1.211426
 H         -2.961728    8.181788   -1.891492
 C         -5.041982    7.712277   -2.309922
 C         -6.702531    4.375069   -1.930639
 H         -7.038536    2.309011   -1.523588
 C         -6.054155    6.756077   -2.338099
 C          8.034764    4.765532    1.634977
 H          6.440249    6.050506    0.905090
 C          8.416769    3.497292    2.070219
 C          7.740514    1.135892    2.548393
 H          6.935153   -0.812450    2.882918
 H          2.686308   10.461293   -1.056530
 H         -5.283512    8.724964   -2.617381
 C         -8.090314    4.664401   -2.358553
 C         -7.431771    7.064798   -2.767106
 H          8.787138    5.546930    1.600944
 C          9.802236    3.184828    2.484564
 C          9.109216    0.804767    2.964774
 O         -8.969157    3.810278   -2.379114
 N         -8.354925    5.995040   -2.747719
 O         -7.798449    8.176712   -3.128925
 O         10.710960    4.009349    2.478810
 N         10.052067    1.864763    2.900738
 O          9.448454   -0.311035    3.350397
 C         -9.717985    6.328780   -3.179204
 C         11.433633    1.580590    3.304223
 H        -10.133901    7.103674   -2.530829
 H         -9.701182    6.707866   -4.203789
 H        -10.317011    5.423603   -3.119814
 H         11.717909    2.223970    4.140622
 H         11.485927    0.534724    3.596053
 H         12.112958    1.778275    2.471410
 O         -1.227446   -1.293105    2.909517
 O         -0.662286    1.519329    2.886899
 C         -1.906255   -0.388029    3.799471
 H         -2.855109   -0.079108    3.346006
 H         -2.106898   -0.949920    4.712528
 C         -1.033537    0.815582    4.108274
 H         -0.103866    0.519351    4.601827
 H         -1.558171    1.550614    4.718596
