        85
S0: Total Energy = -5539.34048067
 C         -6.641772    1.007088    0.184088
 C         -6.479401    2.413048    0.318337
 C         -5.131329    2.776065    0.284010
 C         -4.238890    1.696494    0.131906
 C         -2.900637    2.138472    0.118385
 C         -2.781217    3.528616    0.249708
 C         -1.414383    3.846765    0.171507
 C         -0.714211    5.095219    0.115702
 C          0.714204    5.095220   -0.115654
 S         -5.065792    0.176666    0.029056
 S         -4.316412    4.347591    0.406411
 C          6.641763    1.007086   -0.184118
 C          6.479391    2.413046   -0.318362
 C          5.131320    2.776065   -0.284009
 C          4.238881    1.696493   -0.131905
 C          2.900629    2.138472   -0.118371
 C          2.781209    3.528617   -0.249681
 C          1.414375    3.846766   -0.171469
 C          0.716017    2.610068   -0.029642
 C         -0.716024    2.610068    0.029673
 S          5.065784    0.176664   -0.029070
 S          4.316404    4.347593   -0.406381
 C         -7.924934    0.421242    0.180773
 C         -8.405341   -0.875335    0.066159
 C         -7.586773   -2.093488   -0.102002
 O         -6.363281   -2.177980   -0.157992
 C         -8.527234   -3.232189   -0.194353
 C         -8.218993   -4.573732   -0.362506
 C         -9.274154   -5.482357   -0.427624
 C        -10.592467   -5.016521   -0.322035
 C        -10.901933   -3.669465   -0.152214
 C         -9.845688   -2.757984   -0.086845
 C         -9.809363   -1.279951    0.084416
 C        -10.939524   -0.489590    0.234112
 C        -12.269240   -1.010064    0.238815
 N        -13.372707   -1.384867    0.249534
 C        -10.920821    0.927244    0.405004
 N        -10.963535    2.083697    0.547725
 H         -8.689343    1.180290    0.292047
 H         -7.188577   -4.902888   -0.441100
 F        -11.597451   -5.897613   -0.386595
 H        -11.945317   -3.395647   -0.079777
 C          7.924925    0.421239   -0.180806
 C          8.405337   -0.875335   -0.066179
 C          7.586778   -2.093489    0.102015
 O          6.363287   -2.177989    0.158011
 C          8.527247   -3.232184    0.194368
 C          8.219014   -4.573726    0.362545
 C          9.274181   -5.482345    0.427661
 C         10.592490   -5.016504    0.322047
 C         10.901947   -3.669449    0.152201
 C          9.845696   -2.757974    0.086834
 C          9.809361   -1.279945   -0.084451
 C         10.939513   -0.489581   -0.234192
 C         12.269233   -1.010047   -0.238920
 N         13.372701   -1.384846   -0.249660
 C         10.920798    0.927248   -0.405132
 N         10.963496    2.083700   -0.547866
 H          8.689334    1.180287   -0.292088
 H          7.188601   -4.902886    0.441158
 F         11.597480   -5.897590    0.386606
 H         11.945328   -3.395626    0.079745
 N          1.644532    1.577005    0.030434
 N         -1.644540    1.577006   -0.030416
 N         -1.247022    6.307658    0.202410
 N          1.247014    6.307659   -0.202356
 C         -1.460839    0.222649   -0.554052
 H         -2.330957   -0.034982   -1.161431
 H         -0.584091    0.194502   -1.200435
 H         -1.358287   -0.515047    0.246026
 C          1.460837    0.222654    0.554090
 H          1.358285   -0.515053   -0.245978
 H          2.330956   -0.034967    1.161471
 H          0.584090    0.194513    1.200474
 C          7.607114    3.397103   -0.470968
 H          8.261265    3.399409    0.407944
 H          8.233271    3.165686   -1.339013
 H          7.220698    4.411375   -0.600223
 C         -7.607130    3.397094    0.470975
 H         -8.261568    3.399091   -0.407720
 H         -8.232992    3.165907    1.339297
 H         -7.220731    4.411429    0.599790
 S         -0.000004    7.385404    0.000033
Cl          8.980713   -7.185461    0.638769
Cl         -8.980674   -7.185475   -0.638703
        85
T1: Total Energy = -5539.29593127
 C         -6.630236    1.008676    0.166742
 C         -6.458824    2.427323    0.286667
 C         -5.117062    2.777883    0.255479
 C         -4.219382    1.691140    0.118158
 C         -2.893353    2.121093    0.103258
 C         -2.764790    3.533422    0.217828
 C         -1.418082    3.845333    0.136319
 C         -0.715330    5.097237    0.094622
 C          0.715591    5.097255   -0.094398
 S         -5.064466    0.165961    0.027838
 S         -4.300673    4.356280    0.363702
 C          6.630586    1.008834   -0.166765
 C          6.459148    2.427480   -0.286667
 C          5.117379    2.778008   -0.255389
 C          4.219726    1.691245   -0.118029
 C          2.893687    2.121165   -0.103080
 C          2.765088    3.533491   -0.217641
 C          1.418374    3.845369   -0.136102
 C          0.702051    2.590925   -0.012459
 C         -0.701727    2.590907    0.012680
 S          5.064848    0.166087   -0.027753
 S          4.300948    4.356387   -0.363548
 C         -7.916860    0.433067    0.167749
 C         -8.400767   -0.871288    0.065457
 C         -7.579799   -2.094007   -0.090816
 O         -6.355764   -2.174592   -0.140895
 C         -8.517084   -3.233960   -0.179089
 C         -8.209419   -4.575769   -0.337356
 C         -9.265999   -5.485049   -0.400299
 C        -10.582168   -5.015914   -0.302012
 C        -10.891365   -3.666063   -0.141619
 C         -9.835475   -2.754980   -0.078697
 C         -9.796063   -1.276872    0.083057
 C        -10.931255   -0.478882    0.227311
 C        -12.259023   -0.998478    0.229805
 N        -13.362980   -1.374810    0.238070
 C        -10.915005    0.936389    0.394514
 N        -10.965782    2.093675    0.535247
 H         -8.679540    1.194285    0.267839
 H         -7.179177   -4.906838   -0.410312
 F        -11.589675   -5.894977   -0.364115
 H        -11.934770   -3.390936   -0.074441
 C          7.917179    0.433171   -0.167884
 C          8.400890   -0.871252   -0.065612
 C          7.579640   -2.093759    0.090813
 O          6.355588   -2.174020    0.141028
 C          8.516658   -3.233927    0.179120
 C          8.208689   -4.575649    0.337543
 C          9.265061   -5.485171    0.400483
 C         10.581333   -5.016358    0.302033
 C         10.890834   -3.666595    0.141481
 C          9.835153   -2.755271    0.078567
 C          9.796097   -1.277172   -0.083336
 C         10.931522   -0.479552   -0.227824
 C         12.259110   -0.999609   -0.230378
 N         13.362921   -1.376366   -0.238676
 C         10.915763    0.935697   -0.395266
 N         10.967100    2.092931   -0.536217
 H          8.679918    1.194312   -0.268053
 H          7.178375   -4.906466    0.410619
 F         11.588637   -5.895653    0.364133
 H         11.934298   -3.391717    0.074181
 N          1.644083    1.555685    0.035548
 N         -1.643731    1.555642   -0.035340
 N         -1.251560    6.306459    0.167117
 N          1.251790    6.306491   -0.166897
 C         -1.463290    0.199843   -0.558071
 H         -2.338347   -0.059968   -1.157317
 H         -0.591743    0.171780   -1.211719
 H         -1.352828   -0.534999    0.243372
 C          1.463684    0.199875    0.558269
 H          1.353215   -0.534959   -0.243180
 H          2.338762   -0.059925    1.157489
 H          0.592155    0.171786    1.211941
 C          7.591356    3.406959   -0.424771
 H          8.259368    3.377150    0.443378
 H          8.203350    3.197144   -1.308889
 H          7.211980    4.428216   -0.517143
 C         -7.591066    3.406772    0.424713
 H         -8.259097    3.376871   -0.443417
 H         -8.203029    3.197001    1.308865
 H         -7.211728    4.428050    0.516998
 S          0.000101    7.388163    0.000108
Cl          8.971321   -7.190843    0.600085
Cl         -8.972644   -7.190810   -0.599709
        85
S1: Total Energy = -5539.28010862
 C         -6.631605    1.010626    0.173998
 C         -6.466605    2.420643    0.296620
 C         -5.118364    2.777198    0.263759
 C         -4.225503    1.694130    0.123220
 C         -2.893047    2.129229    0.109063
 C         -2.768459    3.535304    0.227981
 C         -1.417136    3.848996    0.144792
 C         -0.714982    5.099528    0.099692
 C          0.714991    5.099531   -0.099607
 S         -5.064700    0.170639    0.031319
 S         -4.305594    4.354798    0.375650
 C          6.631617    1.010635   -0.173977
 C          6.466618    2.420657   -0.296547
 C          5.118376    2.777210   -0.263691
 C          4.225514    1.694137   -0.123197
 C          2.893058    2.129235   -0.109043
 C          2.768470    3.535313   -0.227918
 C          1.417145    3.849001   -0.144739
 C          0.704483    2.597374   -0.016620
 C         -0.704473    2.597373    0.016634
 S          5.064711    0.170645   -0.031319
 S          4.305608    4.354814   -0.375532
 C         -7.922923    0.427302    0.173801
 C         -8.401534   -0.871278    0.068498
 C         -7.577586   -2.092268   -0.093178
 O         -6.353227   -2.168964   -0.143802
 C         -8.512787   -3.231960   -0.186156
 C         -8.202229   -4.572200   -0.350358
 C         -9.256628   -5.484179   -0.416967
 C        -10.574769   -5.018044   -0.315902
 C        -10.887959   -3.670863   -0.149514
 C         -9.833912   -2.754868   -0.082799
 C         -9.801963   -1.283239    0.085692
 C        -10.937205   -0.485789    0.236214
 C        -12.264414   -1.005799    0.236919
 N        -13.368061   -1.384203    0.243612
 C        -10.920168    0.927723    0.413069
 N        -10.967913    2.084551    0.562263
 H         -8.686173    1.188024    0.276449
 H         -7.171142   -4.900277   -0.425034
 F        -11.579132   -5.900370   -0.381547
 H        -11.931979   -3.398518   -0.080435
 C          7.922932    0.427306   -0.173811
 C          8.401535   -0.871280   -0.068552
 C          7.577582   -2.092261    0.093169
 O          6.353224   -2.168948    0.143815
 C          8.512779   -3.231954    0.186175
 C          8.202217   -4.572185    0.350444
 C          9.256613   -5.484167    0.417068
 C         10.574754   -5.018044    0.315949
 C         10.887948   -3.670872    0.149491
 C          9.833904   -2.754873    0.082765
 C          9.801960   -1.283253   -0.085797
 C         10.937198   -0.485822   -0.236450
 C         12.264404   -1.005840   -0.237202
 N         13.368048   -1.384249   -0.243935
 C         10.920155    0.927671   -0.413455
 N         10.967890    2.084484   -0.562771
 H          8.686186    1.188026   -0.276446
 H          7.171131   -4.900253    0.425158
 F         11.579114   -5.900373    0.381608
 H         11.931968   -3.398536    0.080373
 N          1.644190    1.563585    0.033439
 N         -1.644180    1.563584   -0.033444
 N         -1.250433    6.309690    0.175827
 N          1.250440    6.309696   -0.175709
 C         -1.465094    0.204691   -0.549193
 H         -2.343065   -0.058402   -1.142419
 H         -0.597062    0.173775   -1.207186
 H         -1.350836   -0.525164    0.256097
 C          1.465102    0.204674    0.549140
 H          1.350829   -0.525150   -0.256177
 H          2.343080   -0.058447    1.142343
 H          0.597079    0.173739    1.207145
 C          7.596644    3.403198   -0.437164
 H          8.253473    3.390786    0.439850
 H          8.220565    3.182754   -1.309967
 H          7.213755    4.420976   -0.550597
 C         -7.596631    3.403175    0.437307
 H         -8.253613    3.390650   -0.439589
 H         -8.220394    3.182811    1.310244
 H         -7.213747    4.420975    0.550561
 S          0.000004    7.390134    0.000076
Cl          8.959466   -7.187905    0.624152
Cl         -8.959485   -7.187928   -0.623967
