        85
S0: Total Energy = -8261.25821010
 C         -6.518974   -1.139812   -0.185250
 C         -6.268396   -2.532031   -0.314288
 C         -4.909202   -2.854654   -0.293080
 C         -4.001660   -1.784645   -0.152983
 C         -2.675745   -2.250255   -0.148869
 C         -2.566348   -3.641594   -0.275695
 C         -1.202415   -3.969819   -0.199117
 C         -0.511616   -5.223589   -0.143967
 C          0.916874   -5.234541    0.085331
 S         -4.109952   -4.440066   -0.421073
 C          6.875060   -1.192763    0.183252
 C          6.700808   -2.598640    0.309486
 C          5.350534   -2.950505    0.268001
 C          4.467044   -1.862972    0.116275
 C          3.125704   -2.294380    0.095852
 C          2.995067   -3.684175    0.223034
 C          1.626304   -3.991339    0.141704
 C          0.937604   -2.748813    0.001168
 C         -0.494112   -2.737327   -0.059140
 S          5.306066   -0.349191    0.024060
 S          4.522935   -4.515949    0.382627
 C         -7.831850   -0.638586   -0.170052
 C         -8.366643    0.640248   -0.059442
 C         -7.585735    1.878222    0.063367
 O         -6.360060    1.994541    0.096295
 C         -8.553053    2.994821    0.140006
 C         -8.286599    4.347133    0.259822
 C         -9.366448    5.232013    0.313655
 C        -10.681168    4.736522    0.244793
 C        -10.936260    3.364313    0.124168
 C         -9.858598    2.480693    0.071561
 C         -9.781560    0.998082   -0.049213
 C        -10.886290    0.163446   -0.125642
 C        -12.233572    0.635557   -0.103777
 N        -13.349552    0.971127   -0.090327
 C        -10.816867   -1.258429   -0.230308
 N        -10.814822   -2.421220   -0.315859
 H         -8.559917   -1.434902   -0.265725
 H         -7.266375    4.711314    0.310512
 H        -11.965406    3.037847    0.075784
 C          8.162145   -0.617740    0.192422
 C          8.653975    0.676579    0.090867
 C          7.845660    1.900341   -0.074093
 O          6.623559    1.996359   -0.140281
 C          8.796631    3.033424   -0.149222
 C          8.504558    4.376606   -0.307728
 C          9.565940    5.283109   -0.357064
 C         10.889126    4.817540   -0.246058
 C         11.169870    3.455119   -0.085027
 C         10.109535    2.549381   -0.035352
 C         10.061223    1.069709    0.123488
 C         11.183019    0.268172    0.275846
 C         12.517621    0.775566    0.295727
 N         13.625011    1.138031    0.318801
 C         11.150334   -1.149817    0.435079
 N         11.181615   -2.307714    0.568696
 H          8.919678   -1.383579    0.303896
 H          7.477942    4.715877   -0.391728
 H         12.204281    3.152738   -0.005030
 N          1.874360   -1.722923   -0.054323
 N         -1.414716   -1.697785   -0.001748
 N         -1.053548   -6.431997   -0.230198
 N          1.440971   -6.450769    0.171044
 C         -1.227491   -0.342563    0.517801
 H         -2.102963   -0.077116    1.115115
 H         -0.357426   -0.315600    1.173230
 H         -1.113111    0.391103   -0.284598
 C          1.701977   -0.364991   -0.572185
 H          1.600083    0.369420    0.231004
 H          2.576843   -0.110006   -1.173786
 H          0.828853   -0.328054   -1.223025
 C          7.820059   -3.591885    0.463946
 H          8.492529   -3.579507   -0.400775
 H          8.428977   -3.381640    1.349636
 H          7.425884   -4.606453    0.563890
 C         -7.350231   -3.569789   -0.460605
 H         -8.054065   -3.544274    0.377978
 H         -7.932014   -3.416555   -1.376328
 H         -6.923728   -4.575146   -0.503822
 S          0.185602   -7.519145   -0.029940
Cl         12.234087    5.925924   -0.305282
Cl          9.213820    6.977886   -0.557072
Cl         -9.045864    6.937913    0.465836
Cl        -12.047928    5.817425    0.307186
Se         -4.882433   -0.141515   -0.037943
        85
T1: Total Energy = -8261.21433749
 C          6.508967   -1.142229    0.171726
 C          6.247890   -2.546443    0.290677
 C          4.895660   -2.857535    0.269681
 C          3.983450   -1.781293    0.140811
 C          2.669270   -2.234578    0.133864
 C          2.550215   -3.648678    0.246656
 C          1.206486   -3.970179    0.166245
 C          0.512606   -5.227223    0.125891
 C         -0.918266   -5.237838   -0.062390
 S          4.094118   -4.450440    0.384999
 C         -6.863291   -1.194671   -0.167610
 C         -6.680771   -2.612170   -0.278241
 C         -5.336320   -2.952521   -0.239969
 C         -4.447776   -1.858328   -0.104382
 C         -3.118077   -2.278418   -0.082788
 C         -2.978844   -3.689669   -0.191751
 C         -1.629883   -3.991213   -0.106822
 C         -0.923109   -2.731060    0.014500
 C          0.480315   -2.720270    0.041756
 S         -5.303929   -0.339565   -0.025633
 S         -4.507858   -4.524899   -0.338909
 C          7.825989   -0.651529    0.157969
 C          8.363699    0.634374    0.055782
 C          7.579305    1.875203   -0.053143
 O          6.352600    1.984894   -0.079013
 C          8.541018    2.994982   -0.125304
 C          8.272281    4.346831   -0.233384
 C          9.351822    5.234413   -0.285659
 C         10.665112    4.738265   -0.227120
 C         10.922927    3.363957   -0.118253
 C          9.847251    2.478710   -0.066889
 C          9.769750    0.996164    0.042334
 C         10.880291    0.155818    0.109092
 C         12.224753    0.629890    0.090239
 N         13.340640    0.968963    0.078919
 C         10.815636   -1.265375    0.198530
 N         10.824303   -2.429901    0.270813
 H          8.552027   -1.449699    0.243671
 H          7.251599    4.710757   -0.276533
 H         11.952689    3.038393   -0.077752
 C         -8.153638   -0.628781   -0.180527
 C         -8.648269    0.672833   -0.090886
 C         -7.838168    1.900426    0.063500
 O         -6.615445    1.993619    0.124027
 C         -8.786378    3.034825    0.135795
 C         -8.494433    4.377951    0.286223
 C         -9.557092    5.285158    0.334286
 C        -10.878168    4.816930    0.229625
 C        -11.159157    3.452093    0.076254
 C        -10.099131    2.546825    0.028228
 C        -10.047640    1.067019   -0.123015
 C        -11.173884    0.258976   -0.271766
 C        -12.506751    0.765741   -0.289428
 N        -13.614730    1.129215   -0.310175
 C        -11.143852   -1.157445   -0.429867
 N        -11.183855   -2.315835   -0.563833
 H         -8.909788   -1.396471   -0.280646
 H         -7.467893    4.718715    0.365235
 H        -12.193654    3.148833    0.001006
 N         -1.873289   -1.702991    0.056753
 N          1.415122   -1.678538   -0.004936
 N          1.057361   -6.432484    0.199930
 N         -1.446125   -6.450899   -0.132798
 C          1.231501   -0.322547   -0.525038
 H          2.112010   -0.055941   -1.114342
 H          0.366802   -0.296215   -1.187813
 H          1.109250    0.409279    0.277697
 C         -1.704178   -0.342614    0.570734
 H         -1.592581    0.387126   -0.235233
 H         -2.584839   -0.083565    1.162004
 H         -0.837406   -0.304652    1.230255
 C         -7.804402   -3.601645   -0.415215
 H         -8.479534   -3.567901    0.447203
 H         -8.410721   -3.405788   -1.306420
 H         -7.416399   -4.620789   -0.493667
 C          7.334844   -3.578842    0.424810
 H          8.023885   -3.555860   -0.426736
 H          7.933896   -3.418174    1.328384
 H          6.913485   -4.586031    0.482054
 S         -0.186656   -7.523349    0.035203
Cl        -12.225482    5.923510    0.287043
Cl         -9.204466    6.982033    0.524880
Cl          9.027832    6.942043   -0.423123
Cl         12.032273    5.819627   -0.287944
Se          4.887151   -0.131445    0.038798
        85
S1: Total Energy = -8261.19842393
 C          6.510111   -1.143742    0.174226
 C          6.256034   -2.539409    0.299723
 C          4.897213   -2.856232    0.278612
 C          3.989740   -1.783854    0.142304
 C          2.669289   -2.242587    0.137507
 C          2.554467   -3.649401    0.260332
 C          1.205825   -3.973336    0.181028
 C          0.512777   -5.229214    0.143313
 C         -0.917356   -5.240808   -0.054107
 S          4.099327   -4.447394    0.404204
 C         -6.864845   -1.197450   -0.173334
 C         -6.688327   -2.607771   -0.280378
 C         -5.337703   -2.953464   -0.240588
 C         -4.453354   -1.862353   -0.107848
 C         -3.117543   -2.287350   -0.086435
 C         -2.982161   -3.693093   -0.193559
 C         -1.628528   -3.995768   -0.106884
 C         -0.925387   -2.737960    0.012715
 C          0.483428   -2.726910    0.047150
 S         -5.304001   -0.344433   -0.032611
 S         -4.512769   -4.525661   -0.337101
 C          7.831272   -0.645856    0.157918
 C          8.363712    0.634369    0.050771
 C          7.576610    1.874435   -0.058797
 O          6.349651    1.980862   -0.086002
 C          8.536720    2.994135   -0.128512
 C          8.265433    4.345562   -0.234951
 C          9.342992    5.235919   -0.284776
 C         10.658271    4.741942   -0.225418
 C         10.919744    3.369241   -0.118782
 C          9.845398    2.479064   -0.069799
 C          9.775198    1.001367    0.034897
 C         10.885395    0.160093    0.093697
 C         12.229654    0.634032    0.075208
 N         13.345436    0.974450    0.064106
 C         10.819578   -1.261334    0.170816
 N         10.824672   -2.426899    0.231968
 H          8.558068   -1.443334    0.247458
 H          7.243930    4.707111   -0.278734
 H         11.950145    3.045725   -0.077727
 C         -8.159293   -0.624283   -0.188146
 C         -8.648905    0.672916   -0.099785
 C         -7.835906    1.899105    0.060751
 O         -6.612910    1.988590    0.121985
 C         -8.782144    3.033315    0.138584
 C         -8.487721    4.374720    0.297145
 C         -9.548581    5.284405    0.350075
 C        -10.871095    4.818842    0.241590
 C        -11.155656    3.456527    0.079566
 C        -10.097134    2.546909    0.026583
 C        -10.052074    1.073341   -0.134342
 C        -11.178418    0.265987   -0.295438
 C        -12.510586    0.773134   -0.312562
 N        -13.618361    1.138621   -0.332864
 C        -11.147174   -1.147739   -0.470277
 N        -11.184163   -2.304929   -0.619152
 H         -8.916248   -1.391500   -0.288630
 H         -7.460449    4.712687    0.378802
 H        -12.190702    3.155805    0.001574
 N         -1.873329   -1.711056    0.053216
 N          1.415404   -1.686935   -0.006865
 N          1.056957   -6.435032    0.225849
 N         -1.444398   -6.455137   -0.122352
 C          1.232288   -0.330339   -0.526282
 H          2.114153   -0.063575   -1.113200
 H          0.369456   -0.304224   -1.191263
 H          1.108339    0.400494    0.276931
 C         -1.705402   -0.345624    0.554597
 H         -1.590580    0.375885   -0.258151
 H         -2.588650   -0.081080    1.139279
 H         -0.841761   -0.301882    1.217714
 C         -7.810330   -3.600339   -0.413531
 H         -8.474700   -3.576996    0.457557
 H         -8.428286   -3.399566   -1.295334
 H         -7.419513   -4.617255   -0.505542
 C          7.339930   -3.574658    0.443342
 H          8.044759   -3.545152   -0.394546
 H          7.921423   -3.423398    1.359880
 H          6.916426   -4.581724    0.483241
 S         -0.186002   -7.525488    0.058124
Cl        -12.215422    5.928853    0.305235
Cl         -9.192598    6.979115    0.551175
Cl          9.015702    6.942537   -0.420086
Cl         12.021940    5.827712   -0.282735
Se          4.885692   -0.136124    0.032796
