        81
S0: Total Energy = -7030.67814491
 C         -6.780756   -1.102773   -0.189745
 C         -6.690170   -2.515654   -0.329741
 C         -5.363585   -2.947563   -0.292877
 C         -4.416580   -1.915826   -0.131616
 C         -3.103631   -2.426106   -0.115062
 C         -3.055143   -3.819818   -0.253672
 C         -1.706683   -4.207906   -0.173829
 C         -1.071912   -5.490863   -0.125639
 C          0.354112   -5.565679    0.108899
 S         -5.163657   -0.355490   -0.027710
 S         -4.629560   -4.558270   -0.420761
 C          6.482520   -1.794275    0.235564
 C          6.254167   -3.185239    0.352958
 C          4.885946   -3.479242    0.313726
 C          4.051007   -2.354906    0.170317
 C          2.690033   -2.727311    0.147838
 C          2.498908   -4.109290    0.265385
 C          1.116994   -4.355422    0.177904
 C          0.484260   -3.083606    0.043984
 C         -0.946007   -3.009418   -0.021844
 S          4.956189   -0.879987    0.086232
 S          3.990581   -5.006724    0.420082
 C         -8.031221   -0.453236   -0.179074
 C         -8.444462    0.867786   -0.063736
 C         -7.562027    2.043497    0.064476
 O         -6.335332    2.067889    0.108090
 C         -8.442209    3.233214    0.129522
 C         -8.067512    4.560100    0.245560
 C         -9.071916    5.529819    0.287943
 C        -10.422267    5.141798    0.213193
 C        -10.786812    3.794758    0.096352
 C         -9.783532    2.825970    0.053660
 C         -9.826395    1.341946   -0.062051
 C        -10.998075    0.603068   -0.139810
 C        -12.300942    1.187302   -0.127423
 N        -13.385693    1.613460   -0.122003
 C        -11.054195   -0.819854   -0.235368
 N        -11.158833   -1.978528   -0.313844
 H         -8.834159   -1.171825   -0.287426
 H         -7.020989    4.839076    0.301872
 H        -11.838696    3.552947    0.042292
 C          7.777586   -1.233293    0.237425
 C          8.267682    0.048801    0.136454
 C          7.580191    1.329875   -0.011103
 O          6.373464    1.537778   -0.071078
 C          8.657327    2.388023   -0.078285
 C          8.543723    3.766358   -0.219924
 C          9.721504    4.541302   -0.256491
 C         10.984358    3.925479   -0.151403
 C         11.085132    2.526345   -0.008384
 C          9.916569    1.775061    0.026511
 C          9.723020    0.285730    0.167119
 H          8.572117   -1.973132    0.339047
 N          1.466515   -2.099616   -0.001654
 N         -1.820436   -1.930967    0.041328
 N         -1.665788   -6.673741   -0.224006
 N          0.824054   -6.804618    0.186181
 C         -1.569321   -0.588815    0.567689
 H         -2.431176   -0.284294    1.165076
 H         -0.699758   -0.608245    1.224056
 H         -1.417812    0.142030   -0.230796
 C          1.359531   -0.730595   -0.508290
 H          1.287528    0.001065    0.300674
 H          2.248949   -0.511351   -1.102688
 H          0.492951   -0.646829   -1.163466
 C          7.334896   -4.221906    0.503551
 H          8.061435   -4.167528   -0.313928
 H          7.882812   -4.093032    1.443763
 H          6.909757   -5.228967    0.502092
 C         -7.866920   -3.437899   -0.496203
 H         -8.558286   -3.370100    0.350482
 H         -8.438918   -3.201317   -1.400007
 H         -7.536629   -4.476907   -0.574254
 S         -0.475828   -7.815476   -0.028309
 O         10.603383   -0.554408    0.282686
Cl         12.643037    1.767563    0.119807
Cl         12.423462    4.893967   -0.198978
Cl          9.615549    6.264604   -0.432406
Cl          6.989160    4.533681   -0.351522
Cl         -8.615734    7.205375    0.432829
Cl        -11.697635    6.330289    0.263466
        81
T1: Total Energy = -7030.63223665
 C         -6.773041   -1.106918   -0.177379
 C         -6.670891   -2.534163   -0.315558
 C         -5.349890   -2.951022   -0.277039
 C         -4.397556   -1.914412   -0.118720
 C         -3.096705   -2.410237   -0.104227
 C         -3.037527   -3.828189   -0.236545
 C         -1.709553   -4.207025   -0.150858
 C         -1.070100   -5.493390   -0.124189
 C          0.358588   -5.567769    0.068329
 S         -5.168115   -0.346079   -0.023140
 S         -4.613629   -4.569249   -0.400971
 C          6.468496   -1.793726    0.216130
 C          6.234068   -3.195096    0.312827
 C          4.872452   -3.479964    0.274465
 C          4.033156   -2.347202    0.152545
 C          2.683440   -2.710018    0.126519
 C          2.485158   -4.111225    0.218619
 C          1.121946   -4.354190    0.130537
 C          0.471502   -3.063555    0.023714
 C         -0.931201   -2.992238   -0.007585
 S          4.950278   -0.868645    0.089099
 S          3.976432   -5.013470    0.356467
 C         -8.028662   -0.468086   -0.160985
 C         -8.443857    0.863971   -0.048463
 C         -7.556107    2.046110    0.035463
 O         -6.328666    2.066275    0.054854
 C         -8.430858    3.239192    0.087953
 C         -8.055163    4.566977    0.163412
 C         -9.060735    5.538954    0.201396
 C        -10.408395    5.145909    0.164033
 C        -10.775091    3.793983    0.089529
 C         -9.773009    2.824826    0.050036
 C         -9.812106    1.339475   -0.022412
 C        -10.993420    0.588389   -0.041498
 C        -12.292587    1.172601   -0.033074
 N        -13.377626    1.602206   -0.029801
 C        -11.054052   -0.834314   -0.055500
 N        -11.172466   -1.995770   -0.061125
 H         -8.831240   -1.187155   -0.257519
 H         -7.008128    4.848459    0.192346
 H        -11.827674    3.550531    0.063991
 C          7.765708   -1.241805    0.219995
 C          8.256942    0.045270    0.133268
 C          7.572082    1.329397    0.007042
 O          6.364047    1.538927   -0.040877
 C          8.649447    2.386114   -0.054826
 C          8.537400    3.765881   -0.179487
 C          9.716937    4.539528   -0.214816
 C         10.978890    3.920573   -0.125258
 C         11.078095    2.518960    0.000412
 C          9.908719    1.769628    0.034159
 C          9.712794    0.280106    0.157403
 H          8.558490   -1.984546    0.305988
 N          1.464610   -2.078121   -0.006099
 N         -1.822029   -1.910890    0.048383
 N         -1.666062   -6.672708   -0.215998
 N          0.833377   -6.803864    0.124085
 C         -1.577938   -0.570781    0.584532
 H         -2.447630   -0.269401    1.172019
 H         -0.716519   -0.593705    1.251779
 H         -1.416354    0.163095   -0.209019
 C          1.357385   -0.702543   -0.496044
 H          1.272668    0.016811    0.322431
 H          2.252228   -0.471520   -1.077592
 H          0.497513   -0.614496   -1.159703
 C          7.318699   -4.229488    0.439841
 H          8.020381   -4.180054   -0.399959
 H          7.895411   -4.093051    1.361689
 H          6.895088   -5.237139    0.458703
 C         -7.851915   -3.448354   -0.484368
 H         -8.553842   -3.366765    0.352955
 H         -8.412776   -3.216403   -1.397220
 H         -7.529759   -4.491358   -0.548808
 S         -0.471037   -7.818512   -0.061954
 O         10.590651   -0.565435    0.256825
Cl         12.635357    1.755849    0.108953
Cl         12.419603    4.886511   -0.170556
Cl          9.612437    6.264748   -0.370184
Cl          6.983478    4.537592   -0.292210
Cl         -8.601627    7.219798    0.294320
Cl        -11.687299    6.332977    0.209288
        81
S1: Total Energy = -7030.61536075
 C         -6.774362   -1.112633   -0.171341
 C         -6.681564   -2.523005   -0.310884
 C         -5.348023   -2.949872   -0.273913
 C         -4.406171   -1.919710   -0.112820
 C         -3.091787   -2.423830   -0.103907
 C         -3.037970   -3.829639   -0.245004
 C         -1.702095   -4.211169   -0.158034
 C         -1.063681   -5.496401   -0.130916
 C          0.363962   -5.572979    0.071111
 S         -5.167745   -0.356325   -0.011749
 S         -4.616422   -4.565407   -0.408843
 C          6.469429   -1.794707    0.219582
 C          6.239789   -3.194259    0.318030
 C          4.876651   -3.482658    0.280924
 C          4.037331   -2.350657    0.157837
 C          2.687533   -2.716606    0.131643
 C          2.492223   -4.116740    0.225473
 C          1.127179   -4.361198    0.138538
 C          0.478358   -3.071647    0.031298
 C         -0.930044   -3.001139   -0.006770
 S          4.951141   -0.871249    0.092099
 S          3.983865   -5.016720    0.364777
 C         -8.037788   -0.459021   -0.154977
 C         -8.445225    0.861504   -0.042735
 C         -7.552558    2.040969    0.051597
 O         -6.324840    2.054656    0.081572
 C         -8.423945    3.233869    0.098281
 C         -8.043909    4.560043    0.179325
 C         -9.044696    5.537031    0.212022
 C        -10.395683    5.148343    0.163975
 C        -10.769271    3.801539    0.083963
 C         -9.770607    2.821801    0.049245
 C         -9.822926    1.348929   -0.025928
 C        -11.005156    0.596788   -0.055996
 C        -12.303250    1.181485   -0.056078
 N        -13.387445    1.615192   -0.059831
 C        -11.064407   -0.824591   -0.073582
 N        -11.176718   -1.987605   -0.083315
 H         -8.840900   -1.178087   -0.253594
 H         -6.995697    4.836320    0.216799
 H        -11.822685    3.562540    0.050203
 C          7.768878   -1.239539    0.222004
 C          8.255922    0.046170    0.133611
 C          7.567621    1.330576    0.005746
 O          6.358651    1.534545   -0.041988
 C          8.641650    2.387290   -0.057713
 C          8.526259    3.766844   -0.184265
 C          9.704524    4.543342   -0.221142
 C         10.967924    3.927631   -0.130968
 C         11.071006    2.525873   -0.003135
 C          9.903470    1.773534    0.031878
 C          9.712861    0.285422    0.156811
 H          8.562681   -1.981247    0.308222
 N          1.466537   -2.086579   -0.001926
 N         -1.820506   -1.922343    0.053502
 N         -1.659465   -6.676415   -0.228399
 N          0.837419   -6.810202    0.127820
 C         -1.579416   -0.577446    0.579558
 H         -2.452368   -0.272384    1.159855
 H         -0.721637   -0.594250    1.251439
 H         -1.415265    0.149539   -0.219636
 C          1.357365   -0.708840   -0.486684
 H          1.271251    0.006624    0.334778
 H          2.252439   -0.475298   -1.066605
 H          0.498194   -0.620402   -1.150918
 C          7.325197   -4.227589    0.446628
 H          8.034312   -4.170149   -0.386150
 H          7.892552   -4.097053    1.375103
 H          6.903351   -5.236048    0.453547
 C         -7.857587   -3.444791   -0.485228
 H         -8.584558   -3.340122    0.327126
 H         -8.390762   -3.243283   -1.421552
 H         -7.532458   -4.488631   -0.507719
 S         -0.466586   -7.822048   -0.068199
 O         10.591200   -0.559451    0.256832
Cl         12.629975    1.767127    0.106584
Cl         12.405916    4.896589   -0.178126
Cl          9.595606    6.267561   -0.379079
Cl          6.970805    4.534584   -0.297397
Cl         -8.579301    7.215835    0.311672
Cl        -11.667906    6.344050    0.202881
