        91
S0: Total Energy = -5692.98259273
 C         -6.929019   -1.059258   -0.183556
 C         -6.835744   -2.472100   -0.319699
 C         -5.507874   -2.900914   -0.285025
 C         -4.563015   -1.866640   -0.128965
 C         -3.248677   -2.373967   -0.115058
 C         -3.197744   -3.767955   -0.250750
 C         -1.848427   -4.152954   -0.174569
 C         -1.211430   -5.434940   -0.127324
 C          0.215524   -5.507072    0.099977
 S         -5.313479   -0.307753   -0.027519
 S         -4.770947   -4.510300   -0.411233
 C          6.341518   -1.724134    0.188233
 C          6.108119   -3.121146    0.308115
 C          4.742838   -3.414635    0.276876
 C          3.906389   -2.290167    0.136986
 C          2.547094   -2.664392    0.122629
 C          2.357813   -4.047492    0.242296
 C          0.976621   -4.295238    0.163149
 C          0.340974   -3.023853    0.031469
 C         -1.089529   -2.952564   -0.027812
 S          4.808969   -0.812597    0.049864
 S          3.850138   -4.944187    0.389622
 C         -8.181257   -0.412455   -0.172316
 C         -8.597209    0.907752   -0.061075
 C         -7.717246    2.086089    0.061309
 O         -6.490556    2.113291    0.102932
 C         -8.600064    3.273904    0.123277
 C         -8.228208    4.602106    0.233594
 C         -9.234692    5.569682    0.273881
 C        -10.584359    5.178336    0.202919
 C        -10.946016    3.830068    0.091887
 C         -9.940612    2.863364    0.051163
 C         -9.980451    1.378935   -0.059053
 C        -11.150350    0.637114   -0.132682
 C        -12.454585    1.218394   -0.120644
 N        -13.540261    1.642122   -0.115285
 C        -11.203198   -0.786291   -0.223339
 N        -11.305084   -1.945450   -0.297830
 H         -8.982647   -1.133398   -0.276282
 H         -7.182227    4.883638    0.287056
 H        -11.997440    3.585675    0.040531
 C          7.654339   -1.205953    0.176973
 C          8.201174    0.065378    0.078206
 C          7.440574    1.328503   -0.020999
 O          6.219118    1.465432   -0.052687
 C          8.429371    2.423868   -0.071320
 C          8.191606    3.770064   -0.157518
 C          9.294002    4.664549   -0.189875
 C         10.626593    4.125499   -0.130727
 C         10.830704    2.719608   -0.043105
 C          9.741574    1.871310   -0.013609
 C          9.627174    0.393280    0.070056
 C         10.712111   -0.474040    0.115619
 C         12.070774   -0.036798    0.100455
 N         13.196466    0.266086    0.091528
 C         10.615015   -1.895970    0.174295
 N         10.595656   -3.061284    0.221198
 H          8.378200   -2.006048    0.268967
 H          7.173900    4.147451   -0.200089
 H         11.849604    2.358457   -0.001127
 N          1.321251   -2.038757   -0.020445
 N         -1.966339   -1.875672    0.035999
 N         -1.803974   -6.618838   -0.220809
 N          0.687977   -6.744975    0.176860
 C         -1.716806   -0.531997    0.559245
 H         -2.577738   -0.228348    1.158401
 H         -0.845477   -0.548317    1.213334
 H         -1.569138    0.197696   -0.241034
 C          1.209411   -0.669613   -0.525327
 H          1.137819    0.060936    0.284699
 H          2.096945   -0.447882   -1.121554
 H          0.340915   -0.587287   -1.178169
 C          7.182649   -4.163724    0.455857
 H          7.915026   -4.114497   -0.356346
 H          7.733449   -4.040779    1.395212
 H          6.749917   -5.167576    0.453124
 C         -8.010688   -3.397583   -0.480962
 H         -8.700665   -3.328613    0.366747
 H         -8.584822   -3.165356   -1.384546
 H         -7.678181   -4.436087   -0.556179
 S         -0.611218   -7.758302   -0.029393
 C         11.733113    5.016495   -0.161435
 C          9.113734    6.069472   -0.277918
 H          8.117958    6.498125   -0.323321
 H         12.749513    4.639154   -0.118013
 C         11.518889    6.366344   -0.246972
 C         10.207045    6.894161   -0.305464
 F         12.543249    7.232011   -0.278095
 F         10.070944    8.226056   -0.388326
Cl         -8.782117    7.246804    0.411401
Cl        -11.862216    6.364118    0.250731
        91
T1: Total Energy = -5692.93826801
 C         -6.918824   -1.061374   -0.169125
 C         -6.816630   -2.486625   -0.290790
 C         -5.493891   -2.902903   -0.253413
 C         -4.544299   -1.862151   -0.110821
 C         -3.240811   -2.356909   -0.093894
 C         -3.181511   -3.773376   -0.210700
 C         -1.851704   -4.150801   -0.128446
 C         -1.212092   -5.436178   -0.091875
 C          0.217111   -5.507794    0.094872
 S         -5.313177   -0.296971   -0.026595
 S         -4.755783   -4.519550   -0.361324
 C          6.329196   -1.722982    0.177327
 C          6.085784   -3.132356    0.289897
 C          4.728386   -3.414016    0.260464
 C          3.886602   -2.282277    0.130664
 C          2.540942   -2.644928    0.116007
 C          2.341383   -4.049489    0.222786
 C          0.980723   -4.292438    0.141692
 C          0.327831   -3.002707    0.024990
 C         -1.074542   -2.933531   -0.001271
 S          4.807490   -0.800144    0.053967
 S          3.833629   -4.949873    0.362721
 C         -8.175218   -0.423823   -0.162782
 C         -8.593982    0.904516   -0.064325
 C         -7.711872    2.087130    0.039756
 O         -6.484726    2.111547    0.072560
 C         -8.591641    3.276379    0.095579
 C         -8.220063    4.604655    0.190878
 C         -9.227995    5.573070    0.228814
 C        -10.575423    5.178361    0.170737
 C        -10.937428    3.827264    0.074787
 C         -9.932233    2.861136    0.036128
 C         -9.968395    1.376290   -0.059145
 C        -11.143909    0.627388   -0.120856
 C        -12.445886    1.208539   -0.112859
 N        -13.531899    1.634070   -0.110321
 C        -11.200177   -0.794950   -0.192608
 N        -11.312283   -1.955032   -0.250701
 H         -8.975137   -1.146785   -0.254916
 H         -7.174105    4.887998    0.234912
 H        -11.989002    3.581729    0.033289
 C          7.644403   -1.216728    0.160265
 C          8.195200    0.061786    0.065478
 C          7.435056    1.330067   -0.002707
 O          6.212751    1.466185   -0.014405
 C          8.422867    2.424906   -0.048669
 C          8.186492    3.772190   -0.108456
 C          9.291152    4.665877   -0.141784
 C         10.622385    4.122190   -0.111858
 C         10.824313    2.712777   -0.051336
 C          9.734446    1.866880   -0.019911
 C          9.613656    0.388896    0.038397
 C         10.700152   -0.488157    0.046913
 C         12.058059   -0.054264    0.025165
 N         13.185059    0.246275    0.009956
 C         10.602748   -1.909651    0.064611
 N         10.589821   -3.076633    0.074966
 H          8.366377   -2.018816    0.238956
 H          7.169196    4.152626   -0.129920
 H         11.842904    2.348884   -0.030823
 N          1.320996   -2.016281   -0.018045
 N         -1.965510   -1.853722    0.047492
 N         -1.807624   -6.617046   -0.169300
 N          0.693125   -6.742392    0.160801
 C         -1.719884   -0.506983    0.566006
 H         -2.586846   -0.198795    1.153985
 H         -0.855344   -0.521382    1.229420
 H         -1.562365    0.216937   -0.237433
 C          1.211491   -0.647245   -0.525393
 H          1.128447    0.082652    0.283886
 H          2.105169   -0.423637   -1.111604
 H          0.349822   -0.568204   -1.187974
 C          7.165371   -4.169636    0.426311
 H          7.877324   -4.129448   -0.405017
 H          7.740351   -4.032117    1.349279
 H          6.736076   -5.174999    0.448533
 C         -7.994941   -3.407995   -0.441736
 H         -8.684037   -3.328522    0.406229
 H         -8.570457   -3.181190   -1.346283
 H         -7.667711   -4.449096   -0.508539
 S         -0.610749   -7.760050   -0.009384
 C         11.729510    5.010963   -0.144022
 C          9.113028    6.071798   -0.202972
 H          8.117663    6.503288   -0.226132
 H         12.745686    4.631015   -0.122465
 C         11.517737    6.363563   -0.203226
 C         10.207866    6.895528   -0.232847
 F         12.545280    7.226136   -0.234962
 F         10.072637    8.229596   -0.290892
Cl         -8.774771    7.252839    0.347557
Cl        -11.856232    6.362212    0.216077
        91
S1: Total Energy = -5692.92266265
 C         -6.920106   -1.064288   -0.170121
 C         -6.823706   -2.480457   -0.293479
 C         -5.494246   -2.902918   -0.255922
 C         -4.550011   -1.865862   -0.110861
 C         -3.239556   -2.366209   -0.096137
 C         -3.183987   -3.775630   -0.218094
 C         -1.849274   -4.155025   -0.135456
 C         -1.210256   -5.439147   -0.097151
 C          0.218285   -5.511241    0.097538
 S         -5.313139   -0.302713   -0.024272
 S         -4.759628   -4.518328   -0.369443
 C          6.331112   -1.725973    0.177413
 C          6.093916   -3.128441    0.291186
 C          4.730875   -3.415041    0.261820
 C          3.892692   -2.286323    0.130290
 C          2.541724   -2.653368    0.117299
 C          2.346203   -4.052916    0.227528
 C          0.981357   -4.297276    0.147402
 C          0.331432   -3.009965    0.028487
 C         -1.076019   -2.940599   -0.003701
 S          4.808029   -0.805401    0.050718
 S          3.839538   -4.950443    0.367852
 C         -8.180771   -0.418875   -0.162531
 C         -8.594920    0.903649   -0.063236
 C         -7.709886    2.085123    0.042880
 O         -6.482660    2.105941    0.077155
 C         -8.587619    3.274469    0.098491
 C         -8.213365    4.601676    0.195281
 C         -9.219052    5.572938    0.233526
 C        -10.568068    5.180644    0.174248
 C        -10.933917    3.831682    0.076840
 C         -9.930649    2.860535    0.037548
 C         -9.973824    1.381812   -0.058686
 C        -11.149856    0.632481   -0.122203
 C        -12.451194    1.213942   -0.114776
 N        -13.536933    1.641309   -0.112670
 C        -11.205722   -0.789148   -0.195041
 N        -11.315636   -1.949902   -0.254310
 H         -8.981211   -1.141671   -0.255046
 H         -7.166736    4.882404    0.240394
 H        -11.986021    3.588510    0.034551
 C          7.650370   -1.213024    0.160303
 C          8.196009    0.061408    0.064913
 C          7.433347    1.328568   -0.008059
 O          6.210614    1.461447   -0.023721
 C          8.419115    2.423791   -0.053006
 C          8.179843    3.770563   -0.116221
 C          9.282383    4.667197   -0.147967
 C         10.615736    4.126565   -0.112524
 C         10.821229    2.718572   -0.048586
 C          9.732795    1.868214   -0.019121
 C          9.618772    0.393608    0.040847
 C         10.705558   -0.482307    0.053113
 C         12.063041   -0.047246    0.033552
 N         13.189834    0.254922    0.020299
 C         10.608585   -1.903562    0.072885
 N         10.594070   -3.070777    0.085121
 H          8.373148   -2.014559    0.240172
 H          7.161693    4.148391   -0.141654
 H         11.840547    2.356977   -0.023984
 N          1.321749   -2.024868   -0.017942
 N         -1.965258   -1.862433    0.048408
 N         -1.805375   -6.620833   -0.178046
 N          0.693543   -6.746752    0.165478
 C         -1.721059   -0.513077    0.561346
 H         -2.590324   -0.202647    1.144441
 H         -0.859310   -0.524631    1.228247
 H         -1.561067    0.206821   -0.245069
 C          1.212209   -0.651826   -0.514834
 H          1.127047    0.071207    0.300204
 H          2.107313   -0.423740   -1.096844
 H          0.352474   -0.568675   -1.179182
 C          7.171193   -4.168247    0.431783
 H          7.897199   -4.118490   -0.386413
 H          7.729785   -4.042941    1.366454
 H          6.741156   -5.173489    0.433979
 C         -7.999792   -3.405063   -0.447846
 H         -8.695146   -3.323058    0.394510
 H         -8.569004   -3.184392   -1.357777
 H         -7.670146   -4.445843   -0.506943
 S         -0.609627   -7.762928   -0.012018
 C         11.720371    5.018662   -0.143024
 C          9.100938    6.071989   -0.212839
 H          8.104538    6.500869   -0.240283
 H         12.737529    4.641631   -0.117413
 C         11.505055    6.370744   -0.205891
 C         10.193954    6.899026   -0.241002
 F         12.530380    7.235890   -0.236163
 F         10.054881    8.232422   -0.302521
Cl         -8.762142    7.251294    0.353961
Cl        -11.845308    6.368528    0.220118
