        78
S0: Total Energy = -6891.83338227
 C          7.199610    0.396126   -0.139438
 C          7.202267    1.811844   -0.278075
 C          5.905985    2.328341   -0.255534
 C          4.892748    1.360186   -0.103438
 C          3.615574    1.955136   -0.099470
 C          3.659174    3.348463   -0.240758
 C          2.338288    3.823424   -0.174718
 C          1.790117    5.145890   -0.137330
 C          0.370040    5.316212    0.080326
 S          5.536285   -0.245346    0.006735
 S          5.279667    3.982962   -0.393662
 C         -5.998351    1.968315    0.180329
 C         -5.676390    3.341255    0.289986
 C         -4.291350    3.541273    0.255119
 C         -3.533763    2.361705    0.124114
 C         -2.150357    2.640832    0.109876
 C         -1.867276    4.007428    0.221049
 C         -0.471484    4.159361    0.146188
 C          0.076036    2.846981    0.025818
 C          1.499170    2.677579   -0.026975
 S         -4.537371    0.951473    0.043410
 S         -3.295257    5.005208    0.357637
 C          8.405155   -0.333449   -0.122216
 C          8.736349   -1.677560   -0.011815
 C          7.774315   -2.803460    0.107938
 O          6.549921   -2.733485    0.146395
 C          8.591211   -4.030576    0.169112
 C          8.381503   -5.373099    0.271505
 C         10.814237   -4.762690    0.150012
 C          9.978012   -3.678218    0.099085
 C         10.096945   -2.214176   -0.009257
 C         11.316307   -1.553799   -0.082337
 C         12.547606   -2.273423   -0.064068
 N         13.558764   -2.853410   -0.050421
 C         11.478160   -0.141542   -0.174983
 N         11.653597    1.009085   -0.250762
 H          9.255361    0.331195   -0.221423
 H         11.892721   -4.811961    0.118587
 C         -7.328572    1.497343    0.184615
 C         -7.905987    0.251007    0.097782
 C         -7.309430   -1.076416   -0.035628
 O         -6.120363   -1.368122   -0.099542
 C         -8.458041   -2.058425   -0.080783
 C         -8.441827   -3.443293   -0.201576
 C         -9.670848   -4.135056   -0.215545
 C        -10.886914   -3.431717   -0.108262
 C        -10.889083   -2.026926    0.012789
 C         -9.670969   -1.358281    0.023801
 C         -9.373919    0.116038    0.136555
 H         -8.070255    2.291202    0.278154
 N         -0.970192    1.931661   -0.023576
 N          2.301630    1.544762    0.046074
 N          2.462576    6.286241   -0.232704
 N         -0.017703    6.583901    0.147876
 C          1.961864    0.220145    0.567044
 H          2.800176   -0.141031    1.166384
 H          1.093012    0.293061    1.220612
 H          1.766412   -0.497265   -0.234153
 C         -0.950205    0.550452   -0.505857
 H         -0.929761   -0.169714    0.316226
 H         -1.849178    0.378679   -1.101476
 H         -0.087861    0.398722   -1.154263
 C         -6.685538    4.449234    0.429358
 H         -7.391304    4.457457   -0.408088
 H         -7.266898    4.345879    1.352327
 H         -6.191305    5.423824    0.455996
 C          8.437397    2.656960   -0.430512
 H          9.121087    2.533107    0.416007
 H          8.994779    2.395290   -1.336615
 H          8.175841    3.716352   -0.494816
 S          1.348965    7.505313   -0.054759
 S          9.904223   -6.239336    0.284216
Cl          6.884616   -6.214122    0.378880
 O        -10.193743    1.016970    0.238617
Cl        -12.389121   -1.159900    0.146535
Cl        -12.390025   -4.298753   -0.125438
Cl         -9.686267   -5.864042   -0.365659
Cl         -6.945724   -4.318728   -0.335074
        78
T1: Total Energy = -6891.78756416
 C          7.188037    0.399073   -0.121063
 C          7.181802    1.831284   -0.250152
 C          5.891355    2.334177   -0.222199
 C          4.870775    1.362366   -0.076605
 C          3.606068    1.943433   -0.071622
 C          3.642233    3.362369   -0.202141
 C          2.341604    3.828239   -0.130975
 C          1.789375    5.154462   -0.111557
 C          0.366474    5.324168    0.062124
 S          5.535195   -0.254386    0.020061
 S          5.265328    3.997788   -0.349689
 C         -5.983891    1.968374    0.152997
 C         -5.656142    3.351189    0.247342
 C         -4.278495    3.543875    0.215676
 C         -3.516027    2.356891    0.102391
 C         -2.144666    2.628022    0.090322
 C         -1.853827    4.012964    0.183651
 C         -0.476521    4.164123    0.114147
 C          0.087684    2.832758    0.017325
 C          1.482673    2.667672    0.002557
 S         -4.530553    0.943291    0.034684
 S         -3.282174    5.013922    0.302956
 C          8.397758   -0.321791   -0.110958
 C          8.728477   -1.678873   -0.012699
 C          7.763021   -2.807054    0.089341
 O          6.537733   -2.733431    0.123004
 C          8.573777   -4.037013    0.140182
 C          8.360327   -5.379270    0.225966
 C         10.794589   -4.770106    0.121854
 C          9.961561   -3.684916    0.080456
 C         10.075829   -2.219305   -0.008680
 C         11.304282   -1.552327   -0.067366
 C         12.532167   -2.272993   -0.055624
 N         13.544613   -2.853250   -0.047294
 C         11.475413   -0.142176   -0.134314
 N         11.671930    1.007451   -0.188085
 H          9.247615    0.342538   -0.201638
 H         11.872927   -4.821345    0.094361
 C         -7.314875    1.505206    0.158716
 C         -7.892518    0.253264    0.084411
 C         -7.297245   -1.075479   -0.031466
 O         -6.106646   -1.367281   -0.087639
 C         -8.444713   -2.057666   -0.069840
 C         -8.428397   -3.443430   -0.175030
 C         -9.658223   -4.135378   -0.186346
 C        -10.873986   -3.430898   -0.091750
 C        -10.876150   -2.024112    0.013825
 C         -9.658269   -1.355903    0.022204
 C         -9.360344    0.118504    0.119280
 H         -8.055479    2.300578    0.239500
 N         -0.968749    1.916288   -0.024972
 N          2.299260    1.529273    0.067459
 N          2.464019    6.291280   -0.194720
 N         -0.025512    6.589205    0.112379
 C          1.963177    0.210082    0.606686
 H          2.811845   -0.150469    1.191581
 H          1.107721    0.293969    1.277278
 H          1.747342   -0.512557   -0.184174
 C         -0.943518    0.532761   -0.501791
 H         -0.902654   -0.182613    0.323308
 H         -1.849895    0.349823   -1.082451
 H         -0.089419    0.387562   -1.163224
 C         -6.670563    4.455255    0.367852
 H         -7.354273    4.466418   -0.488182
 H         -7.276735    4.344084    1.273903
 H         -6.180481    5.431336    0.414067
 C          8.421954    2.666949   -0.399941
 H          9.103072    2.539753    0.448956
 H          8.982158    2.399935   -1.303440
 H          8.168857    3.728717   -0.467098
 S          1.346232    7.514486   -0.055695
 S          9.879973   -6.253529    0.234995
Cl          6.858685   -6.216906    0.317721
 O        -10.178498    1.023158    0.208555
Cl        -12.376565   -1.155302    0.131824
Cl        -12.377518   -4.297137   -0.105371
Cl         -9.672998   -5.865837   -0.317522
Cl         -6.932103   -4.321102   -0.292393
        78
S1: Total Energy = -6891.77025377
 C          7.192495    0.404011   -0.131351
 C          7.191143    1.821568   -0.260695
 C          5.889965    2.332133   -0.234304
 C          4.879783    1.363571   -0.089082
 C          3.603022    1.951782   -0.087645
 C          3.641938    3.359588   -0.221693
 C          2.334026    3.826950   -0.147431
 C          1.783081    5.151959   -0.124532
 C          0.361409    5.323126    0.058990
 S          5.537409   -0.247912    0.007622
 S          5.265891    3.992693   -0.366959
 C         -5.987754    1.968375    0.163253
 C         -5.662403    3.349322    0.259614
 C         -4.282773    3.543659    0.225524
 C         -3.521636    2.356921    0.108860
 C         -2.149494    2.629812    0.093768
 C         -1.859848    4.013440    0.188161
 C         -0.480982    4.164552    0.115680
 C          0.081117    2.833645    0.016159
 C          1.481392    2.669020   -0.008673
 S         -4.535109    0.943160    0.040360
 S         -3.287745    5.013639    0.312296
 C          8.407384   -0.327005   -0.112152
 C          8.733974   -1.675255   -0.010971
 C          7.767902   -2.803792    0.079331
 O          6.542015   -2.730740    0.101525
 C          8.578977   -4.032707    0.133290
 C          8.363973   -5.375205    0.212333
 C         10.800779   -4.768955    0.133822
 C          9.968599   -3.680938    0.088181
 C         10.088357   -2.219731    0.006459
 C         11.315259   -1.551510   -0.033298
 C         12.544373   -2.269865   -0.009360
 N         13.558013   -2.848346    0.009021
 C         11.483375   -0.140615   -0.089362
 N         11.674509    1.010709   -0.133347
 H          9.257582    0.338473   -0.196971
 H         11.879272   -4.820529    0.116401
 C         -7.321309    1.503799    0.169304
 C         -7.896853    0.252872    0.092748
 C         -7.300156   -1.076402   -0.026157
 O         -6.108453   -1.365280   -0.082679
 C         -8.445553   -2.057694   -0.066614
 C         -8.428112   -3.443215   -0.175397
 C         -9.658079   -4.136644   -0.187835
 C        -10.874090   -3.433871   -0.090811
 C        -10.877846   -2.026421    0.018284
 C         -9.660859   -1.356813    0.027674
 C         -9.365483    0.116146    0.127607
 H         -8.061942    2.298985    0.252082
 N         -0.972641    1.918391   -0.025707
 N          2.299262    1.533963    0.055513
 N          2.457785    6.289516   -0.211549
 N         -0.029521    6.589042    0.112334
 C          1.968024    0.204810    0.572225
 H          2.820031   -0.163652    1.146893
 H          1.115450    0.274227    1.247670
 H          1.751947   -0.503483   -0.231404
 C         -0.951079    0.530774   -0.491170
 H         -0.909478   -0.177256    0.340088
 H         -1.859639    0.345639   -1.067449
 H         -0.099720    0.378565   -1.154045
 C         -6.676337    4.453221    0.384681
 H         -7.364562    4.463390   -0.467645
 H         -7.277360    4.342238    1.294177
 H         -6.186353    5.429465    0.427573
 C          8.426557    2.665751   -0.411611
 H          9.118948    2.529570    0.426322
 H          8.976470    2.416081   -1.326249
 H          8.167782    3.727173   -0.459214
 S          1.341668    7.512317   -0.064342
 S          9.883565   -6.251503    0.232880
Cl          6.861096   -6.212759    0.287258
 O        -10.183448    1.021284    0.218441
Cl        -12.379336   -1.159909    0.139503
Cl        -12.376754   -4.301117   -0.105635
Cl         -9.670762   -5.866586   -0.323409
Cl         -6.931280   -4.319467   -0.296240
