        88
S0: Total Energy = -5677.91225006
 C         -6.734950   -1.223219   -0.202562
 C         -6.576710   -2.630585   -0.328380
 C         -5.229997   -2.997600   -0.288428
 C         -4.334575   -1.919869   -0.140095
 C         -2.997729   -2.366033   -0.121040
 C         -2.882499   -3.757292   -0.244528
 C         -1.516934   -4.079330   -0.161859
 C         -0.821035   -5.329831   -0.098285
 C          0.606853   -5.333351    0.135650
 S         -5.156755   -0.396913   -0.047529
 S         -4.419841   -4.572386   -0.400213
 C          6.547704   -1.265301    0.197580
 C          6.379811   -2.670686    0.337523
 C          5.030988   -3.028781    0.301681
 C          4.142482   -1.946454    0.142389
 C          2.802993   -2.383797    0.127716
 C          2.678523   -3.773030    0.265626
 C          1.310946   -4.086873    0.186357
 C          0.617038   -2.848440    0.036787
 C         -0.814894   -2.844074   -0.025316
 S          4.974639   -0.429991    0.035039
 S          4.210251   -4.596834    0.429790
 C         -8.016110   -0.633481   -0.207516
 C         -8.492565    0.665690   -0.102614
 C         -7.670309    1.881084    0.061935
 O         -6.446634    1.960503    0.123583
 C         -8.606158    3.026037    0.142638
 C         -8.294338    4.367890    0.303471
 C         -9.350700    5.278420    0.356593
 C        -10.675827    4.833365    0.249448
 C        -10.977943    3.480139    0.087105
 C         -9.925607    2.558603    0.031985
 C         -9.894359    1.077041   -0.129955
 C        -11.026310    0.289692   -0.280328
 C        -12.356592    0.809394   -0.296316
 N        -13.462652    1.175915   -0.317081
 C        -11.010622   -1.128648   -0.441657
 N        -11.056073   -2.285907   -0.576705
 H         -8.782299   -1.390892   -0.317417
 H         -7.261326    4.686655    0.384412
 H        -12.013943    3.181920    0.009139
 C          7.832272   -0.684614    0.195159
 C          8.317857    0.610754    0.077693
 C          7.503265    1.829353   -0.094661
 O          6.280408    1.919543   -0.154410
 C          8.448781    2.965778   -0.186205
 C          8.149807    4.306065   -0.356070
 C          9.206839    5.216709   -0.420203
 C         10.532689    4.758016   -0.312219
 C         10.820394    3.398486   -0.139631
 C          9.764399    2.488601   -0.075130
 C          9.723519    1.010326    0.098270
 C         10.849783    0.215195    0.251466
 C         12.182229    0.728585    0.258588
 N         13.288118    1.096108    0.271602
 C         10.824416   -1.201372    0.424047
 N         10.861794   -2.357819    0.568260
 H          8.593769   -1.445905    0.310661
 H          7.121205    4.639901   -0.437608
 H         11.856576    3.101446   -0.062583
 N          1.549047   -1.818871   -0.026641
 N         -1.740219   -1.807765    0.027205
 N         -1.357669   -6.540926   -0.179800
 N          1.135582   -6.547016    0.229510
 C         -1.553080   -0.450557    0.542310
 H         -2.424130   -0.185608    1.145149
 H         -0.678296   -0.421314    1.191330
 H         -1.445346    0.281279   -0.262431
 C          1.371056   -0.466719   -0.558105
 H          1.269918    0.275763    0.237686
 H          2.243010   -0.215684   -1.165603
 H          0.495452   -0.439061   -1.206018
 C          7.503598   -3.657984    0.497128
 H          8.160494   -3.665562   -0.379689
 H          8.127793   -3.425566    1.366310
 H          7.113237   -4.670424    0.628724
 C         -7.707196   -3.611778   -0.478617
 H         -8.364296   -3.606227    0.398071
 H         -8.329625   -3.383677   -1.350228
 H         -7.323799   -4.628144   -0.600173
 S         -0.114588   -7.621707    0.030323
Cl         11.872371    5.871669   -0.389817
Cl          8.846206    6.907915   -0.634582
 C         -9.097697    6.753410    0.529890
 H        -11.486691    5.553760    0.293222
 F         -7.783393    7.040604    0.619084
 F         -9.693461    7.226726    1.648427
 F         -9.599095    7.463750   -0.506449
        88
T1: Total Energy = -5677.86791059
 C         -6.728210   -1.221516   -0.183393
 C         -6.561875   -2.642042   -0.292089
 C         -5.221645   -2.997149   -0.255778
 C         -4.320173   -1.912597   -0.124580
 C         -2.995833   -2.347237   -0.104355
 C         -2.872412   -3.760988   -0.208150
 C         -1.527203   -4.077326   -0.122255
 C         -0.829542   -5.331701   -0.071166
 C          0.601004   -5.336050    0.119522
 S         -5.159359   -0.383248   -0.052465
 S         -4.410838   -4.579284   -0.351458
 C          6.532758   -1.272406    0.175415
 C          6.354899   -2.689913    0.302450
 C          5.011695   -3.034455    0.271856
 C          4.118948   -1.944585    0.126730
 C          2.791001   -2.368825    0.112815
 C          2.656329   -3.779928    0.235770
 C          1.308575   -4.086647    0.153911
 C          0.597586   -2.830017    0.020951
 C         -0.806144   -2.824587   -0.006538
 S          4.970335   -0.423136    0.035534
 S          4.188277   -4.608520    0.389466
 C         -8.012896   -0.642087   -0.178981
 C         -8.491218    0.665609   -0.087884
 C         -7.663070    1.888911    0.006374
 O         -6.437951    1.965051    0.032338
 C         -8.593525    3.038403    0.062107
 C         -8.279701    4.383708    0.148568
 C         -9.336944    5.300181    0.182496
 C        -10.660472    4.849704    0.125850
 C        -10.965029    3.487195    0.037246
 C         -9.915976    2.563446    0.006356
 C         -9.884982    1.076806   -0.079963
 C        -11.025515    0.275064   -0.129643
 C        -12.354128    0.793173   -0.118731
 N        -13.461002    1.160765   -0.113630
 C        -11.016479   -1.149168   -0.189018
 N        -11.074192   -2.313692   -0.236144
 H         -8.778704   -1.401812   -0.264821
 H         -7.244435    4.705869    0.183234
 H        -12.002402    3.186854   -0.008165
 C          7.821808   -0.703654    0.160300
 C          8.310817    0.599302    0.053525
 C          7.493061    1.828187   -0.042003
 O          6.268880    1.918473   -0.064231
 C          8.435454    2.967941   -0.103323
 C          8.135383    4.314569   -0.193787
 C          9.193618    5.227235   -0.237993
 C         10.518400    4.760479   -0.190105
 C         10.807732    3.391659   -0.099680
 C          9.752188    2.480992   -0.055502
 C          9.709158    0.995968    0.034019
 C         10.842149    0.183726    0.075125
 C         12.173813    0.693223    0.057583
 N         13.281158    1.059268    0.047022
 C         10.820774   -1.240483    0.129634
 N         10.868401   -2.405615    0.171613
 H          8.581932   -1.468352    0.252132
 H          7.106005    4.654077   -0.229362
 H         11.844835    3.089756   -0.066510
 N          1.544177   -1.799022   -0.031920
 N         -1.744349   -1.785553    0.032377
 N         -1.370457   -6.539242   -0.136393
 N          1.132470   -6.546818    0.200616
 C         -1.559612   -0.425641    0.542820
 H         -2.435980   -0.156068    1.135774
 H         -0.690743   -0.395361    1.199970
 H         -1.442515    0.300901   -0.265194
 C          1.370768   -0.445963   -0.564201
 H          1.261304    0.294762    0.231908
 H          2.248523   -0.193991   -1.162832
 H          0.501134   -0.418719   -1.220395
 C          7.482230   -3.673328    0.451828
 H          8.186073   -3.615766   -0.385553
 H          8.055903   -3.491521    1.367813
 H          7.100954   -4.697111    0.496113
 C         -7.697228   -3.617948   -0.429688
 H         -8.398303   -3.546895    0.409002
 H         -8.271962   -3.440216   -1.345758
 H         -7.324190   -4.645103   -0.465381
 S         -0.123206   -7.624707    0.039204
Cl         11.860320    5.874005   -0.241651
Cl          8.830458    6.928799   -0.351899
 C         -9.049603    6.769896    0.336973
 H        -11.470672    5.570819    0.144384
 F         -7.871238    7.111776   -0.228801
 F         -8.976882    7.127711    1.641174
 F        -10.009503    7.534836   -0.226671
        88
S1: Total Energy = -5677.85193870
 C         -6.726261   -1.225374   -0.189312
 C         -6.566949   -2.639150   -0.273400
 C         -5.220720   -3.000413   -0.223600
 C         -4.323757   -1.917718   -0.106771
 C         -2.993362   -2.357885   -0.076150
 C         -2.874373   -3.767128   -0.159937
 C         -1.524558   -4.084123   -0.066979
 C         -0.827289   -5.335911    0.008692
 C          0.602535   -5.336530    0.208788
 S         -5.156675   -0.389063   -0.054153
 S         -4.414373   -4.583816   -0.291735
 C          6.535206   -1.270189    0.187768
 C          6.364517   -2.677094    0.340971
 C          5.014884   -3.028358    0.317884
 C          4.126212   -1.945235    0.152208
 C          2.791953   -2.375160    0.148586
 C          2.661923   -3.777564    0.300665
 C          1.309471   -4.087942    0.224357
 C          0.601769   -2.836994    0.065834
 C         -0.807085   -2.832454    0.031595
 S          4.970848   -0.426868    0.032151
 S          4.195662   -4.599346    0.468692
 C         -8.013568   -0.635188   -0.227645
 C         -8.485867    0.668578   -0.159716
 C         -7.660596    1.884278    0.027283
 O         -6.437498    1.954161    0.108921
 C         -8.592468    3.029791    0.106589
 C         -8.282784    4.366192    0.290489
 C         -9.340165    5.282353    0.335665
 C        -10.660902    4.839616    0.192370
 C        -10.962182    3.487949    0.002499
 C         -9.912613    2.562102   -0.040629
 C         -9.881781    1.090697   -0.227590
 C        -11.011970    0.302222   -0.445579
 C        -12.339163    0.821746   -0.484042
 N        -13.444596    1.192674   -0.523368
 C        -10.988937   -1.104636   -0.671135
 N        -11.031288   -2.254964   -0.865124
 H         -8.779290   -1.393532   -0.329350
 H         -7.249973    4.682346    0.391122
 H        -11.996668    3.193988   -0.106824
 C          7.828265   -0.693448    0.158130
 C          8.310750    0.602600    0.027786
 C          7.488770    1.828872   -0.080218
 O          6.264217    1.914372   -0.101365
 C          8.428079    2.968835   -0.154309
 C          8.123865    4.313482   -0.257151
 C          9.179125    5.229455   -0.312472
 C         10.506233    4.766586   -0.263086
 C         10.800843    3.400704   -0.160554
 C          9.747840    2.484690   -0.104980
 C          9.713518    1.005847   -0.003581
 C         10.847376    0.193825    0.033952
 C         12.178136    0.704256    0.007960
 N         13.284927    1.072901   -0.008892
 C         10.826251   -1.229785    0.089268
 N         10.871461   -2.395505    0.130286
 H          8.590014   -1.455493    0.261455
 H          7.093268    4.649186   -0.293900
 H         11.838915    3.102154   -0.126997
 N          1.545418   -1.808262   -0.008496
 N         -1.742499   -1.793968    0.055137
 N         -1.367267   -6.545508   -0.038850
 N          1.133415   -6.546495    0.314059
 C         -1.558618   -0.423613    0.538172
 H         -2.436508   -0.142561    1.123287
 H         -0.691600   -0.380266    1.196897
 H         -1.439951    0.285822   -0.284513
 C          1.371797   -0.462373   -0.559341
 H          1.264653    0.289126    0.226762
 H          2.248656   -0.220028   -1.163022
 H          0.501133   -0.444164   -1.214187
 C          7.489838   -3.660315    0.511238
 H          8.211643   -3.601343   -0.310176
 H          8.042866   -3.480171    1.440233
 H          7.108425   -4.684429    0.545440
 C         -7.700151   -3.621006   -0.390763
 H         -8.339898   -3.603144    0.499046
 H         -8.340311   -3.405409   -1.252626
 H         -7.319924   -4.639665   -0.505377
 S         -0.120956   -7.626130    0.163315
Cl         11.843579    5.884882   -0.328195
Cl          8.810606    6.928357   -0.441645
 C         -9.060741    6.738014    0.596417
 H        -11.470668    5.560923    0.222376
 F         -7.853776    7.110316    0.116444
 F         -9.057277    7.014836    1.922521
 F         -9.989233    7.540199    0.031511
