       116
S0: Total Energy = -4350.64393836
 C         -5.197832    0.880840    0.078807
 C         -4.344372    2.001531    0.094081
 C         -2.992137    1.667944    0.077399
 C         -2.790030    0.291242    0.040363
 C         -1.378785   -0.016522    0.011609
 C         -0.683043    1.223443    0.007325
 C          0.702499    1.245948    0.000723
 S         -4.247847   -0.624352    0.030814
 C         -1.660643    2.421103    0.042803
 H          1.251647    2.182549    0.006416
 C          5.197828   -0.880842   -0.078718
 C          4.344369   -2.001534   -0.094002
 C          2.992135   -1.667942   -0.077356
 C          2.790028   -0.291241   -0.040318
 C          1.378783    0.016522   -0.011577
 C          0.683041   -1.223444   -0.007299
 C         -0.702501   -1.245949   -0.000693
 S          4.247847    0.624349   -0.030720
 C          1.660643   -2.421102   -0.042786
 H         -1.251649   -2.182549   -0.006379
 C         -1.627365    3.286035   -1.236519
 C         -2.297114    4.520188   -1.256125
 C         -2.359009    5.285865   -2.417331
 C         -1.754723    4.853705   -3.607055
 C         -1.095310    3.620851   -3.586043
 C         -1.032309    2.847772   -2.424026
 H         -2.768736    4.892128   -0.351011
 H         -2.885922    6.237421   -2.398546
 H         -0.620478    3.252115   -4.492455
 H         -0.515614    1.894314   -2.455426
 C         -1.384171    3.245250    1.318518
 C         -0.407179    4.252160    1.316196
 C         -0.088994    4.946292    2.482124
 C         -0.733587    4.667279    3.694797
 C         -1.703036    3.657818    3.694895
 C         -2.022969    2.957741    2.530681
 H          0.104887    4.506534    0.393046
 H          0.673542    5.721251    2.446583
 H         -2.219672    3.411532    4.619892
 H         -2.777472    2.178550    2.575542
 C          1.384184   -3.245219   -1.318526
 C          0.407166   -4.252104   -1.316246
 C          0.088994   -4.946207   -2.482194
 C          0.733625   -4.667190   -3.694846
 C          1.703100   -3.657755   -3.694901
 C          2.023021   -2.957706   -2.530666
 H         -0.104930   -4.506481   -0.393114
 H         -0.673563   -5.721148   -2.446686
 H          2.219768   -3.411466   -4.619880
 H          2.777547   -2.178535   -2.575496
 C          1.627350   -3.286064    1.236514
 C          2.297082   -4.520226    1.256098
 C          2.358965   -5.285925    2.417291
 C          1.754684   -4.853777    3.607021
 C          1.095288   -3.620913    3.586032
 C          1.032300   -2.847813    2.424029
 H          2.768700   -4.892157    0.350979
 H          2.885865   -6.237488    2.398489
 H          0.620461   -3.252188    4.492450
 H          0.515619   -1.894348    2.455443
 C         -1.798233    5.702674   -4.855661
 H         -1.053800    6.508836   -4.814267
 H         -1.587981    5.108558   -5.750656
 C         -0.411392    5.446817    4.947847
 H         -0.641563    4.869057    5.848907
 H          0.646752    5.727387    4.983705
 C          0.411442   -5.446700   -4.947916
 H         -0.646717   -5.727209   -4.983824
 H          0.641685   -4.868945   -5.848962
 C          1.798182   -5.702768    4.855614
 H          1.587901   -5.108672    5.750615
 H          1.053765   -6.508943    4.814190
 H         -2.777932    6.176213   -4.983900
 H         -0.994421    6.376114    4.998265
 H          0.994419   -6.376030   -4.998317
 H          2.777888   -6.176293    4.983866
 C          6.602275   -1.052830   -0.101630
 C          7.715000   -0.232978   -0.097678
 H          6.879108   -2.105722   -0.130211
 C          7.663507    1.215616   -0.060206
 C          9.009417   -0.925922   -0.134757
 N          8.899862    1.896507   -0.060250
 O          6.611509    1.853452   -0.029416
 N         10.158754   -0.105776   -0.130451
 O          9.120970   -2.147500   -0.168830
 C         10.136532    1.276428   -0.095102
 C          8.845597    3.366987   -0.020460
 C         11.460012   -0.792975   -0.167220
 S         11.557732    2.170870   -0.094650
 H          9.360532    3.732745    0.869489
 H          9.335327    3.779928   -0.903939
 H          7.796441    3.648285    0.001938
 H         12.015737   -0.487330   -1.055327
 H         12.042288   -0.531794    0.718064
 H         11.256162   -1.859902   -0.190845
 C         -6.602275    1.052827    0.101726
 C         -7.715000    0.232975    0.097717
 H         -6.879105    2.105719    0.130349
 C         -7.663504   -1.215617    0.060209
 C         -9.009419    0.925916    0.134804
 N         -8.899859   -1.896509    0.060136
 O         -6.611503   -1.853454    0.029568
 N        -10.158756    0.105769    0.130404
 O         -9.120974    2.147490    0.169005
 C        -10.136530   -1.276434    0.095016
 C         -8.845590   -3.366987    0.020303
 C        -11.460015    0.792962    0.167189
 S        -11.557728   -2.170877    0.094566
 H         -9.335202   -3.779964    0.903833
 H         -9.360638   -3.732716   -0.869590
 H         -7.796434   -3.648279   -0.002229
 H        -12.042328    0.531712   -0.718049
 H        -12.015701    0.487381    1.055344
 H        -11.256171    1.859892    0.190737
 H         -4.740396    3.010939    0.115412
 H          4.740389   -3.010944   -0.115321
       116
T1: Total Energy = -4350.59162298
 C          5.182206    0.879816   -0.071482
 C          4.311701    2.014328   -0.088785
 C          2.978052    1.684160   -0.066115
 C          2.760442    0.284134   -0.024748
 C          1.389034   -0.014357   -0.002420
 C          0.667510    1.241549   -0.007793
 C         -0.700421    1.261064   -0.012218
 S          4.239663   -0.635915   -0.016479
 C          1.647376    2.438158   -0.037156
 H         -1.255983    2.193574   -0.026217
 C         -5.182205   -0.879820    0.071473
 C         -4.311700   -2.014331    0.088784
 C         -2.978051   -1.684162    0.066151
 C         -2.760441   -0.284135    0.024797
 C         -1.389033    0.014357    0.002486
 C         -0.667509   -1.241548    0.007860
 C          0.700421   -1.261064    0.012287
 S         -4.239662    0.635913    0.016505
 C         -1.647374   -2.438158    0.037215
 H          1.255984   -2.193575    0.026281
 C          1.614081    3.296369    1.246385
 C          2.269706    4.538015    1.268601
 C          2.331315    5.296077    2.434595
 C          1.742084    4.848109    3.626159
 C          1.098507    3.606819    3.602535
 C          1.036173    2.840990    2.436014
 H          2.730386    4.921334    0.362809
 H          2.846291    6.254102    2.418307
 H          0.636912    3.225525    4.510489
 H          0.532289    1.880604    2.465400
 C          1.378158    3.262154   -1.313192
 C          0.408288    4.275970   -1.313416
 C          0.095858    4.968627   -2.481485
 C          0.739099    4.681100   -3.693207
 C          1.700772    3.664311   -3.690427
 C          2.014551    2.964799   -2.524239
 H         -0.102423    4.536444   -0.391283
 H         -0.660886    5.749267   -2.448726
 H          2.215359    3.411070   -4.614588
 H          2.763117    2.179754   -2.567204
 C         -1.378173   -3.262146    1.313258
 C         -0.408250   -4.275911    1.313526
 C         -0.095838   -4.968554    2.481609
 C         -0.739150   -4.681062    3.693301
 C         -1.700876   -3.664323    3.690478
 C         -2.014637   -2.964826    2.524276
 H          0.102520   -4.536355    0.391417
 H          0.660949   -5.749154    2.448884
 H         -2.215519   -3.411111    4.614616
 H         -2.763244   -2.179818    2.567209
 C         -1.614059   -3.296373   -1.246324
 C         -2.269691   -4.538015   -1.268550
 C         -2.331282   -5.296080   -2.434542
 C         -1.742027   -4.848117   -3.626097
 C         -1.098445   -3.606829   -3.602464
 C         -1.036129   -2.840999   -2.435944
 H         -2.730391   -4.921329   -0.362765
 H         -2.846263   -6.254102   -2.418261
 H         -0.636833   -3.225539   -4.510411
 H         -0.532240   -1.880614   -2.465324
 C          1.785680    5.688809    4.880127
 H          1.030909    6.485778    4.850028
 H          1.590200    5.086105    5.772662
 C          0.422717    5.459155   -4.948487
 H          0.650633    4.877872   -5.847788
 H         -0.633665    5.745915   -4.986046
 C         -0.422785   -5.459103    4.948594
 H          0.633618   -5.745775    4.986219
 H         -0.650806   -4.877846    5.847886
 C         -1.785605   -5.688820   -4.880064
 H         -1.590073   -5.086125   -5.772594
 H         -1.030863   -6.485814   -4.849935
 H          2.760442    6.173648    5.003241
 H          1.011417    6.384766   -5.000129
 H         -1.011411   -6.384763    5.000189
 H         -2.760379   -6.173627   -5.003212
 C         -6.574819   -1.057183    0.099730
 C         -7.698856   -0.228290    0.096195
 H         -6.853545   -2.108400    0.134188
 C         -7.655343    1.217300    0.050021
 C         -8.987800   -0.923164    0.143725
 N         -8.895484    1.893862    0.052055
 O         -6.605952    1.862610    0.010249
 N        -10.143012   -0.109709    0.140320
 O         -9.092988   -2.147069    0.185949
 C        -10.128853    1.270709    0.096614
 C         -8.846043    3.364115    0.003242
 C        -11.439308   -0.805059    0.188040
 S        -11.555853    2.159896    0.097726
 H         -9.366401    3.722884   -0.886429
 H         -9.333325    3.780735    0.886381
 H         -7.797952    3.648658   -0.025592
 H        -11.992328   -0.497786    1.077315
 H        -12.028109   -0.552719   -0.695528
 H        -11.228255   -1.870467    0.216723
 C          6.574819    1.057177   -0.099777
 C          7.698855    0.228283   -0.096249
 H          6.853545    2.108394   -0.134260
 C          7.655340   -1.217306   -0.050041
 C          8.987799    0.923154   -0.143824
 N          8.895480   -1.893870   -0.052096
 O          6.605949   -1.862613   -0.010238
 N         10.143009    0.109696   -0.140453
 O          9.092987    2.147057   -0.186105
 C         10.128848   -1.270721   -0.096733
 C          8.846038   -3.364122   -0.003251
 C         11.439305    0.805042   -0.188249
 S         11.555845   -2.159913   -0.097928
 H          9.333229   -3.780763   -0.886431
 H          9.366484   -3.722874    0.886375
 H          7.797948   -3.648660    0.025691
 H         12.028164    0.552679    0.695273
 H         11.992263    0.497787   -1.077569
 H         11.228254    1.870451   -0.216895
 H          4.711595    3.021650   -0.115342
 H         -4.711594   -3.021654    0.115321
       116
S1: Total Energy = -4350.56714666
 C          5.187712    0.886213   -0.058473
 C          4.323921    2.012768   -0.077354
 C          2.981401    1.677874   -0.058634
 C          2.770725    0.285831   -0.018520
 C          1.386376   -0.016954   -0.001413
 C          0.671811    1.234855   -0.006309
 C         -0.702704    1.256945   -0.010773
 S          4.243655   -0.630642   -0.004599
 C          1.651206    2.430482   -0.034899
 H         -1.255112    2.191267   -0.023078
 C         -5.187711   -0.886229    0.058463
 C         -4.323919   -2.012783    0.077336
 C         -2.981399   -1.677886    0.058608
 C         -2.770725   -0.285843    0.018498
 C         -1.386377    0.016943    0.001380
 C         -0.671811   -1.234866    0.006277
 C          0.702704   -1.256956    0.010738
 S         -4.243656    0.630628    0.004588
 C         -1.651204   -2.430494    0.034867
 H          1.255112   -2.191278    0.023045
 C          1.616645    3.288880    1.247326
 C          2.259115    4.537760    1.267114
 C          2.318995    5.294909    2.433571
 C          1.740963    4.839215    3.627975
 C          1.110882    3.590543    3.606875
 C          1.051082    2.825284    2.440405
 H          2.710396    4.926883    0.359158
 H          2.823503    6.258403    2.415796
 H          0.658900    3.203423    4.517131
 H          0.559441    1.858547    2.471672
 C          1.382544    3.247451   -1.314801
 C          0.418865    4.267243   -1.321528
 C          0.110031    4.952920   -2.494464
 C          0.750723    4.652162   -3.704791
 C          1.705759    3.628994   -3.695559
 C          2.015421    2.935936   -2.524719
 H         -0.089533    4.537703   -0.401017
 H         -0.641631    5.738610   -2.467236
 H          2.217390    3.365330   -4.618381
 H          2.757324    2.144249   -2.561975
 C         -1.382537   -3.247458    1.314771
 C         -0.418739   -4.267138    1.321550
 C         -0.109905   -4.952795    2.494497
 C         -0.750711   -4.652127    3.704786
 C         -1.705862   -3.629067    3.695505
 C         -2.015526   -2.936029    2.524652
 H          0.089755   -4.537524    0.401070
 H          0.641851   -5.738397    2.467309
 H         -2.217584   -3.365472    4.618296
 H         -2.757521   -2.144425    2.561871
 C         -1.616647   -3.288884   -1.247362
 C         -2.259225   -4.537708   -1.267203
 C         -2.319112   -5.294833   -2.433676
 C         -1.740980   -4.839171   -3.628043
 C         -1.110795   -3.590552   -3.606892
 C         -1.050988   -2.825316   -2.440408
 H         -2.710589   -4.926805   -0.359277
 H         -2.823705   -6.258283   -2.415941
 H         -0.658735   -3.203456   -4.517120
 H         -0.559265   -1.858620   -2.471635
 C          1.782357    5.678918    4.882359
 H          1.018309    6.467213    4.857054
 H          1.598725    5.073300    5.775390
 C          0.438070    5.422928   -4.965221
 H          0.663021    4.834378   -5.860484
 H         -0.616755    5.715043   -5.004502
 C         -0.438051   -5.422873    4.965226
 H          0.616813   -5.714834    5.004589
 H         -0.663163   -4.834375    5.860483
 C         -1.782386   -5.678850   -4.882442
 H         -1.598624   -5.073239   -5.775452
 H         -1.018430   -6.467233   -4.857097
 H          2.752149    6.174860    5.000118
 H          1.031704    6.345040   -5.022984
 H         -1.031556   -6.345073    5.022920
 H         -2.752226   -6.174679   -5.000274
 C         -6.586618   -1.060524    0.089702
 C         -7.706971   -0.231680    0.088502
 H         -6.865679   -2.111740    0.127740
 C         -7.659730    1.212721    0.032780
 C         -8.995740   -0.924127    0.148309
 N         -8.899608    1.891802    0.040926
 O         -6.609404    1.857861   -0.020666
 N        -10.149757   -0.107163    0.149083
 O         -9.104943   -2.148505    0.197489
 C        -10.132808    1.271806    0.098851
 C         -8.846398    3.361608   -0.017661
 C        -11.446660   -0.800455    0.209968
 S        -11.560310    2.165812    0.107614
 H         -9.371477    3.716528   -0.906139
 H         -9.326192    3.785555    0.866072
 H         -7.797457    3.641986   -0.055473
 H        -11.992415   -0.489173    1.102357
 H        -12.042167   -0.551443   -0.670072
 H        -11.235828   -1.865855    0.241383
 C          6.586619    1.060507   -0.089689
 C          7.706973    0.231662   -0.088461
 H          6.865682    2.111722   -0.127728
 C          7.659730   -1.212739   -0.032743
 C          8.995743    0.924109   -0.148247
 N          8.899608   -1.891820   -0.040862
 O          6.609403   -1.857879    0.020675
 N         10.149759    0.107144   -0.149004
 O          9.104947    2.148486   -0.197436
 C         10.132809   -1.271825   -0.098786
 C          8.846397   -3.361626    0.017726
 C         11.446664    0.800436   -0.209875
 S         11.560310   -2.165833   -0.107570
 H          9.326150   -3.785575   -0.866029
 H          9.371515   -3.716546    0.906179
 H          7.797457   -3.642001    0.055580
 H         12.042178    0.551384    0.670147
 H         11.992408    0.489191   -1.102284
 H         11.235833    1.865837   -0.241244
 H          4.719505    3.021829   -0.103497
 H         -4.719500   -3.021845    0.103480
