        85
S0: Total Energy = -9563.90095919
 C         -6.642014    1.336405    0.204711
 C         -6.479244    2.742034    0.336439
 C         -5.130988    3.105176    0.297345
 C         -4.239124    2.025760    0.143569
 C         -2.900628    2.467882    0.126019
 C         -2.780818    3.857823    0.256329
 C         -1.413989    4.175927    0.174717
 C         -0.714013    5.424312    0.117204
 C          0.714029    5.424314   -0.117150
 S         -5.066536    0.505901    0.044945
 S         -4.315771    4.676798    0.416420
 C          6.642029    1.336406   -0.204745
 C          6.479258    2.742037   -0.336452
 C          5.131003    3.105178   -0.297343
 C          4.239138    2.025760   -0.143586
 C          2.900643    2.467883   -0.126029
 C          2.780834    3.857826   -0.256310
 C          1.414005    4.175930   -0.174688
 C          0.716017    2.939300   -0.031497
 C         -0.716002    2.939300    0.031501
 S          5.066551    0.505900   -0.044990
 S          4.315787    4.676804   -0.416380
 C         -7.925629    0.750055    0.208076
 C         -8.406101   -0.546410    0.098989
 C         -7.587962   -1.763739   -0.069654
 O         -6.364783   -1.847811   -0.132780
 C         -8.529324   -2.905284   -0.152466
 C         -8.217495   -4.245950   -0.316403
 C         -9.283586   -5.143864   -0.369145
 C        -10.607803   -4.707989   -0.261460
 C        -10.900832   -3.351356   -0.095885
 C         -9.847655   -2.431359   -0.039403
 C         -9.810829   -0.953969    0.125581
 C        -10.938667   -0.160118    0.277961
 C        -12.270481   -0.675401    0.292027
 N        -13.377100   -1.040658    0.310981
 C        -10.917322    1.257416    0.442874
 N        -10.959137    2.414549    0.581122
 H         -8.689301    1.509542    0.321228
 H         -7.186741   -4.571973   -0.399363
 H        -11.936969   -3.052763   -0.016622
 C          7.925643    0.750052   -0.208107
 C          8.406106   -0.546415   -0.099019
 C          7.587956   -1.763737    0.069632
 O          6.364777   -1.847799    0.132752
 C          8.529309   -2.905288    0.152461
 C          8.217469   -4.245949    0.316415
 C          9.283554   -5.143871    0.369171
 C         10.607774   -4.708008    0.261484
 C         10.900814   -3.351380    0.095890
 C          9.847645   -2.431375    0.039394
 C          9.810831   -0.953988   -0.125614
 C         10.938676   -0.160153   -0.278020
 C         12.270484   -0.675453   -0.292091
 N         13.377097   -1.040726   -0.311048
 C         10.917348    1.257378   -0.442969
 N         10.959183    2.414506   -0.581249
 H          8.689319    1.509535   -0.321248
 H          7.186713   -4.571963    0.399378
 H         11.936954   -3.052795    0.016625
 N          1.644894    1.906293    0.025705
 N         -1.644880    1.906295   -0.025726
 N         -1.246642    6.636799    0.205051
 N          1.246659    6.636803   -0.204973
 C         -1.462732    0.551545   -0.548739
 H         -2.335125    0.293040   -1.152468
 H         -0.588453    0.522986   -1.198479
 H         -1.356915   -0.185461    0.251561
 C          1.462748    0.551538    0.548708
 H          1.356932   -0.185462   -0.251597
 H          2.335141    0.293029    1.152436
 H          0.588469    0.522973    1.198447
 C          7.606281    3.726652   -0.491504
 H          8.263389    3.728006    0.385194
 H          8.229755    3.496655   -1.361838
 H          7.219050    4.740972   -0.618133
 C         -7.606271    3.726637    0.491544
 H         -8.263658    3.727710   -0.384942
 H         -8.229457    3.496845    1.362141
 H         -7.219058    4.741014    0.617766
 S          0.000009    7.714562    0.000049
Br          8.932264   -7.005028    0.593085
Br         -8.932311   -7.005026   -0.593033
 H         11.416079   -5.429201    0.306803
 H        -11.416113   -5.429177   -0.306768
        85
T1: Total Energy = -9563.85575080
 C         -6.632209    1.340250    0.171203
 C         -6.459385    2.759508    0.287468
 C         -5.117717    3.108806    0.255562
 C         -4.220207    2.021324    0.120007
 C         -2.894174    2.450480    0.104467
 C         -2.764769    3.863074    0.216632
 C         -1.418231    4.174434    0.134976
 C         -0.715635    5.426364    0.093531
 C          0.715604    5.426361   -0.093407
 S         -5.066251    0.495726    0.039146
 S         -4.300213    4.686974    0.361823
 C          6.632181    1.340237   -0.171330
 C          6.459345    2.759483   -0.287711
 C          5.117689    3.108799   -0.255555
 C          4.220192    2.021330   -0.119792
 C          2.894161    2.450488   -0.104166
 C          2.764743    3.863073   -0.216450
 C          1.418208    4.174432   -0.134754
 C          0.701675    2.919444   -0.012359
 C         -0.701688    2.919441    0.012703
 S          5.066238    0.495727   -0.039021
 S          4.300176    4.686965   -0.361814
 C         -7.919075    0.766470    0.160162
 C         -8.403282   -0.538735    0.063594
 C         -7.582126   -1.765774   -0.024885
 O         -6.357372   -1.850432   -0.047839
 C         -8.520514   -2.910584   -0.078006
 C         -8.207595   -4.257531   -0.160233
 C         -9.275098   -5.156561   -0.196136
 C        -10.598867   -4.712915   -0.150996
 C        -10.892855   -3.347151   -0.068966
 C         -9.839953   -2.427220   -0.031671
 C         -9.800591   -0.942468    0.048553
 C        -10.935356   -0.132574    0.087012
 C        -12.266616   -0.644000    0.073529
 N        -13.374827   -1.007532    0.066124
 C        -10.918640    1.292073    0.134763
 N        -10.971149    2.457222    0.171387
 H         -8.681853    1.529242    0.246037
 H         -7.175925   -4.589409   -0.194662
 H        -11.929961   -3.043197   -0.035940
 C          7.919053    0.766469   -0.160357
 C          8.403280   -0.538722   -0.063666
 C          7.582140   -1.765762    0.024937
 O          6.357390   -1.850424    0.048070
 C          8.520539   -2.910566    0.078001
 C          8.207633   -4.257511    0.160314
 C          9.275144   -5.156536    0.196128
 C         10.598905   -4.712887    0.150825
 C         10.892880   -3.347124    0.068720
 C          9.839971   -2.427197    0.031515
 C          9.800592   -0.942445   -0.048725
 C         10.935348   -0.132537   -0.087248
 C         12.266614   -0.643948   -0.073926
 N         13.374841   -1.007436   -0.066650
 C         10.918613    1.292111   -0.134934
 N         10.971096    2.457265   -0.171463
 H          8.681815    1.529240   -0.246401
 H          7.175969   -4.589392    0.194867
 H         11.929980   -3.043168    0.035568
 N          1.644586    1.884366    0.034001
 N         -1.644587    1.884345   -0.033573
 N         -1.252077    6.635543    0.165225
 N          1.252037    6.635537   -0.165217
 C         -1.465052    0.527906   -0.554510
 H         -2.342146    0.266384   -1.150045
 H         -0.595801    0.499132   -1.211272
 H         -1.351240   -0.205678    0.247654
 C          1.465064    0.527922    0.554914
 H          1.351199   -0.205641   -0.247262
 H          2.342191    0.266374    1.150389
 H          0.595850    0.499142    1.211725
 C          7.590566    3.739699   -0.428894
 H          8.292655    3.674312    0.409410
 H          8.165523    3.561445   -1.344783
 H          7.213151    4.765174   -0.467651
 C         -7.590609    3.739752    0.428447
 H         -8.293071    3.673751   -0.409489
 H         -8.165144    3.562091    1.344722
 H         -7.213242    4.765278    0.466321
 S         -0.000023    7.717498   -0.000037
Br          8.921703   -7.028503    0.308970
Br         -8.921640   -7.028529   -0.308881
 H         11.408433   -5.433700    0.179601
 H        -11.408389   -5.433732   -0.179841
        85
S1: Total Energy = -9563.83975253
 C         -6.632248    1.339905    0.192832
 C         -6.465880    2.750694    0.312261
 C         -5.118139    3.106575    0.274897
 C         -4.225338    2.023058    0.133417
 C         -2.893237    2.457847    0.115320
 C         -2.767857    3.864158    0.232521
 C         -1.416847    4.177553    0.146689
 C         -0.714910    5.428134    0.100447
 C          0.714963    5.428138   -0.100266
 S         -5.065344    0.499324    0.046204
 S         -4.304524    4.684265    0.382822
 C          6.632313    1.339928   -0.192796
 C          6.465942    2.750719   -0.312189
 C          5.118202    3.106598   -0.274767
 C          4.225406    2.023078   -0.133273
 C          2.893304    2.457861   -0.115158
 C          2.767918    3.864173   -0.232347
 C          1.416906    4.177560   -0.146514
 C          0.704306    2.925598   -0.017844
 C         -0.704241    2.925595    0.018017
 S          5.065419    0.499347   -0.046083
 S          4.304581    4.684288   -0.382650
 C         -7.922896    0.757194    0.199478
 C         -8.402634   -0.542570    0.100175
 C         -7.580084   -1.762728   -0.061928
 O         -6.356072   -1.840448   -0.119875
 C         -8.516789   -2.905498   -0.145283
 C         -8.203157   -4.245017   -0.305314
 C         -9.269107   -5.145518   -0.359703
 C        -10.592888   -4.709055   -0.256631
 C        -10.888551   -3.351712   -0.094320
 C         -9.836935   -2.428582   -0.036505
 C         -9.802550   -0.955646    0.125986
 C        -10.935519   -0.155108    0.279556
 C        -12.264951   -0.669809    0.289386
 N        -13.371997   -1.038015    0.304154
 C        -10.915898    1.259151    0.451381
 N        -10.963184    2.416488    0.597090
 H         -8.685521    1.518290    0.303508
 H         -7.171881   -4.570543   -0.384349
 H        -11.925165   -3.053756   -0.018435
 C          7.922952    0.757199   -0.199559
 C          8.402657   -0.542580   -0.100305
 C          7.580070   -1.762693    0.061941
 O          6.356061   -1.840352    0.120027
 C          8.516734   -2.905499    0.145273
 C          8.203062   -4.244992    0.305439
 C          9.268980   -5.145535    0.359775
 C         10.592768   -4.709137    0.256522
 C         10.888471   -3.351819    0.094077
 C          9.836889   -2.428648    0.036313
 C          9.802552   -0.955722   -0.126281
 C         10.935546   -0.155262   -0.280085
 C         12.264944   -0.670048   -0.290050
 N         13.371963   -1.038332   -0.304939
 C         10.915991    1.258978   -0.452064
 N         10.963357    2.416294   -0.597919
 H          8.685585    1.518278   -0.303649
 H          7.171781   -4.570468    0.384613
 H         11.925090   -3.053912    0.018054
 N          1.644576    1.891860    0.029388
 N         -1.644506    1.891851   -0.029216
 N         -1.250382    6.638262    0.177108
 N          1.250428    6.638269   -0.176929
 C         -1.466786    0.532781   -0.544665
 H         -2.347182    0.268589   -1.133797
 H         -0.601555    0.501803   -1.206426
 H         -1.348574   -0.196555    0.260549
 C          1.466866    0.532785    0.544829
 H          1.348639   -0.196543   -0.260390
 H          2.347272    0.268588    1.133943
 H          0.601647    0.501802    1.206605
 C          7.595393    3.733568   -0.454573
 H          8.255942    3.718391    0.419622
 H          8.215869    3.515542   -1.330461
 H          7.212108    4.751722   -0.563440
 C         -7.595340    3.733536    0.454628
 H         -8.255953    3.718271   -0.419516
 H         -8.215748    3.515573    1.330582
 H         -7.212066    4.751707    0.563379
 S          0.000021    7.718882    0.000093
Br          8.914791   -7.007257    0.579429
Br         -8.914973   -7.007271   -0.579178
 H         11.400838   -5.430785    0.302757
 H        -11.400983   -5.430672   -0.302902
