        94
S0: Total Energy = -4576.50118188
 C          6.675179    0.519788   -0.105366
 C          6.483401    1.925045   -0.205555
 C          5.127895    2.259551   -0.184718
 C          4.256215    1.157508   -0.071385
 C          2.908533    1.570552   -0.067425
 C          2.763522    2.959308   -0.170565
 C          1.388168    3.252328   -0.116124
 C          0.701961    4.507691   -0.080797
 C         -0.702066    4.507698    0.080575
 S          5.114519   -0.347196    0.004172
 S          4.280784    3.815542   -0.284706
 C         -6.675270    0.519793    0.105474
 C         -6.483498    1.925056    0.205594
 C         -5.127990    2.259557    0.184798
 C         -4.256305    1.157504    0.071598
 C         -2.908624    1.570551    0.067597
 C         -2.763618    2.959318    0.170590
 C         -1.388267    3.252337    0.116092
 C         -0.712599    1.997574    0.013082
 C          0.712507    1.997575   -0.012948
 S         -5.114604   -0.347211   -0.003784
 S         -4.280883    3.815558    0.284653
 C          7.970120   -0.038471   -0.094097
 C          8.477345   -1.327657   -0.013997
 C          7.684380   -2.570695    0.065386
 O          6.462256   -2.686584    0.091869
 C          8.648363   -3.693004    0.105086
 C          8.365228   -5.050711    0.175270
 C          9.444014   -5.922264    0.198604
 C         10.756273   -5.433911    0.152510
 C         11.037379   -4.074839    0.083277
 C          9.957458   -3.184557    0.059067
 C          9.890435   -1.699860   -0.007806
 C         11.005046   -0.873890   -0.043950
 C         12.347026   -1.361457   -0.034439
 N         13.459664   -1.708584   -0.029601
 C         10.958146    0.551805   -0.088238
 N         10.980559    1.717164   -0.123330
 H          8.719693    0.739665   -0.167857
 H          7.346453   -5.421361    0.210340
 F          9.257808   -7.246798    0.265075
 F         11.760438   -6.320834    0.176848
 H         12.074252   -3.770227    0.050607
 C         -7.970199   -0.038485    0.094139
 C         -8.477357   -1.327695    0.014061
 C         -7.684317   -2.570671   -0.065475
 O         -6.462185   -2.686477   -0.091936
 C         -8.648234   -3.693034   -0.105244
 C         -8.365013   -5.050716   -0.175558
 C         -9.443743   -5.922336   -0.198971
 C        -10.756032   -5.434070   -0.152820
 C        -11.037225   -4.075023   -0.083445
 C         -9.957362   -3.184670   -0.059159
 C         -9.890423   -1.699973    0.007886
 C        -11.005052   -0.874036    0.044280
 C        -12.347033   -1.361603    0.034786
 N        -13.459690   -1.708671    0.029966
 C        -10.958153    0.551648    0.088898
 N        -10.980513    1.717000    0.124257
 H         -8.719803    0.739631    0.167810
 H         -7.346215   -5.421298   -0.210675
 F         -9.257452   -7.246850   -0.265580
 F        -11.760140   -6.321054   -0.177243
 H        -12.074117   -3.770487   -0.050735
 N         -1.661140    0.978860   -0.040419
 N          1.661053    0.978869    0.040661
 N          1.395694    5.664318   -0.164656
 N         -1.395804    5.664331    0.164292
 C          1.491885   -0.399332    0.496320
 H          2.384065   -0.692317    1.053411
 H          0.641748   -0.462978    1.175818
 H          1.354754   -1.094323   -0.336645
 C         -1.491963   -0.399403   -0.495884
 H         -1.354828   -1.094276    0.337179
 H         -2.384136   -0.692473   -1.052940
 H         -0.641824   -0.463138   -1.175371
 C         -7.590821    2.936512    0.326682
 H         -8.310661    2.854801   -0.494191
 H         -8.149833    2.808766    1.260575
 H         -7.188425    3.952820    0.316513
 C          7.590717    2.936485   -0.326820
 H          8.310660    2.854809    0.493966
 H          8.149610    2.808685   -1.260778
 H          7.188332    3.952798   -0.316654
 C         -0.711168    6.800224    0.085088
 C          0.711050    6.800218   -0.085559
 C         -1.484337    8.088024    0.179996
 H         -1.359616    8.697550   -0.723691
 H         -2.545773    7.868506    0.311469
 H         -1.142910    8.698656    1.025131
 C          1.484172    8.088009   -0.180833
 H          1.143237    8.698127   -1.026518
 H          1.358859    8.698042    0.722443
 H          2.545702    7.868463   -0.311489
        94
T1: Total Energy = -4576.45578904
 C         -6.661882    0.521324    0.107104
 C         -6.461809    1.937889    0.201290
 C         -5.112543    2.261776    0.178383
 C         -4.236361    1.154728    0.070005
 C         -2.900755    1.557628    0.063764
 C         -2.746006    2.967616    0.157830
 C         -1.390545    3.254581    0.097111
 C         -0.701013    4.515672    0.069968
 C          0.700901    4.515670   -0.069630
 S         -5.111550   -0.355270    0.006651
 S         -4.264730    3.825228    0.269393
 C          6.661755    0.521293   -0.107111
 C          6.461675    1.937854   -0.201314
 C          5.112415    2.261753   -0.178259
 C          4.236238    1.154711   -0.069796
 C          2.900634    1.557617   -0.063472
 C          2.745885    2.967606   -0.157545
 C          1.390428    3.254576   -0.096774
 C          0.700160    1.985759   -0.001647
 C         -0.700279    1.985761    0.002005
 S          5.111423   -0.355295   -0.006572
 S          4.264605    3.825211   -0.269202
 C         -7.959807   -0.028274    0.089511
 C         -8.468470   -1.325582    0.015431
 C         -7.671688   -2.572663   -0.019404
 O         -6.448726   -2.683477   -0.023610
 C         -8.631247   -3.697712   -0.042822
 C         -8.347343   -5.055923   -0.068283
 C         -9.426397   -5.929376   -0.083791
 C        -10.736906   -5.438799   -0.074408
 C        -11.019187   -4.076578   -0.050868
 C         -9.940720   -3.185815   -0.034493
 C         -9.871940   -1.700098   -0.013259
 C        -10.991611   -0.867261   -0.036925
 C        -12.330996   -1.355355   -0.053945
 N        -13.443737   -1.705204   -0.066606
 C        -10.946863    0.556977   -0.062320
 N        -10.976498    1.723332   -0.088711
 H         -8.709071    0.750289    0.149270
 H         -7.328304   -5.427567   -0.075560
 F         -9.238143   -7.256539   -0.107449
 F        -11.743036   -6.324580   -0.088878
 H        -12.056399   -3.771358   -0.044952
 C          7.959696   -0.028279   -0.089604
 C          8.468448   -1.325556   -0.015511
 C          7.671769   -2.572703    0.019443
 O          6.448819   -2.683621    0.023936
 C          8.631417   -3.697678    0.042801
 C          8.347625   -5.055910    0.068380
 C          9.426751   -5.929276    0.083783
 C         10.737220   -5.438596    0.074188
 C         11.019388   -4.076353    0.050535
 C          9.940846   -3.185681    0.034268
 C          9.871952   -1.699975    0.012973
 C         10.991588   -0.867087    0.036450
 C         12.330989   -1.355143    0.053315
 N         13.443726   -1.705010    0.065858
 C         10.946802    0.557152    0.061787
 N         10.976452    1.723508    0.088111
 H          8.708919    0.750313   -0.149482
 H          7.328616   -5.427635    0.075818
 F          9.238607   -7.256453    0.107535
 F         11.743423   -6.324295    0.088568
 H         12.056575   -3.771045    0.044458
 N          1.660650    0.965168    0.043631
 N         -1.660771    0.965172   -0.043293
 N         -1.396982    5.667752    0.145558
 N          1.396871    5.667747   -0.145243
 C         -1.494389   -0.414058   -0.499193
 H         -2.390319   -0.707028   -1.050130
 H         -0.648275   -0.477067   -1.183853
 H         -1.351609   -1.106748    0.334453
 C          1.494268   -0.414066    0.499524
 H          1.351434   -1.106745   -0.334120
 H          2.390222   -0.707056    1.050410
 H          0.648188   -0.477069    1.184229
 C          7.574072    2.942713   -0.317692
 H          8.283469    2.865109    0.513255
 H          8.145637    2.804127   -1.242834
 H          7.176889    3.961444   -0.322148
 C         -7.574212    2.942758    0.317516
 H         -8.283499    2.865154   -0.513525
 H         -8.145903    2.804187    1.242583
 H         -7.177020    3.961486    0.322015
 C          0.711282    6.806423   -0.076186
 C         -0.711391    6.806425    0.076485
 C          1.486719    8.092355   -0.162605
 H          1.349744    8.702326    0.738891
 H          2.549522    7.872235   -0.279971
 H          1.155723    8.701672   -1.012638
 C         -1.486826    8.092360    0.162884
 H         -1.155844    8.701677    1.012923
 H         -1.349830    8.702329   -0.738609
 H         -2.549631    7.872244    0.280231
        94
S1: Total Energy = -4576.44000873
 C         -6.664112    0.524003    0.098831
 C         -6.470221    1.932224    0.192523
 C         -5.114076    2.261190    0.170975
 C         -4.242794    1.157346    0.063080
 C         -2.900291    1.564522    0.059934
 C         -2.749654    2.968708    0.156553
 C         -1.390056    3.257414    0.098193
 C         -0.701232    4.517015    0.070793
 C          0.701275    4.517028   -0.070722
 S         -5.112581   -0.350758   -0.002044
 S         -4.269584    3.823652    0.265920
 C          6.664188    0.524066   -0.098904
 C          6.470292    1.932301   -0.192446
 C          5.114143    2.261251   -0.170988
 C          4.242862    1.157387   -0.063285
 C          2.900358    1.564553   -0.060142
 C          2.749713    2.968749   -0.156599
 C          1.390110    3.257436   -0.098259
 C          0.702051    1.990039   -0.002824
 C         -0.701987    1.990034    0.002616
 S          5.112657   -0.350714    0.001781
 S          4.269641    3.823714   -0.265833
 C         -7.966985   -0.032931    0.080927
 C         -8.470932   -1.324475    0.009512
 C         -7.671387   -2.571021   -0.025499
 O         -6.448148   -2.678468   -0.034394
 C         -8.629187   -3.696004   -0.042183
 C         -8.342762   -5.053645   -0.064592
 C         -9.419955   -5.929642   -0.074000
 C        -10.732284   -5.441382   -0.061834
 C        -11.018329   -4.080767   -0.041512
 C         -9.941352   -3.185135   -0.031240
 C         -9.879820   -1.704768   -0.014943
 C        -10.999708   -0.871444   -0.039284
 C        -12.338654   -1.359717   -0.053107
 N        -13.451248   -1.711359   -0.063307
 C        -10.954200    0.552056   -0.069234
 N        -10.980485    1.718883   -0.098964
 H         -8.716607    0.745858    0.138940
 H         -7.322872   -5.422944   -0.074179
 F         -9.229352   -7.256468   -0.094353
 F        -11.735406   -6.330462   -0.070379
 H        -12.056165   -3.777660   -0.033210
 C          7.967057   -0.032876   -0.080983
 C          8.470960   -1.324443   -0.009657
 C          7.671330   -2.570937    0.025241
 O          6.448081   -2.678298    0.033854
 C          8.629048   -3.695983    0.042103
 C          8.342530   -5.053605    0.064485
 C          9.419663   -5.929674    0.074083
 C         10.732026   -5.441500    0.062122
 C         11.018163   -4.080904    0.041807
 C          9.941247   -3.185201    0.031340
 C          9.879825   -1.704829    0.014957
 C         10.999797   -0.871616    0.039294
 C         12.338684   -1.360044    0.053272
 N         13.451235   -1.711821    0.063596
 C         10.954472    0.551893    0.069046
 N         10.981003    1.718718    0.098626
 H          8.716692    0.745909   -0.138832
 H          7.322614   -5.422837    0.073910
 F          9.228969   -7.256487    0.094436
 F         11.735088   -6.330645    0.070853
 H         12.056020   -3.777867    0.033664
 N          1.661150    0.970755    0.045706
 N         -1.661079    0.970750   -0.046027
 N         -1.397084    5.669780    0.147167
 N          1.397122    5.669807   -0.146935
 C         -1.495088   -0.411282   -0.493961
 H         -2.392481   -0.707667   -1.040415
 H         -0.651190   -0.477772   -1.180870
 H         -1.349958   -1.098538    0.343624
 C          1.495176   -0.411321    0.493510
 H          1.350129   -1.098511   -0.344144
 H          2.392542   -0.707720    1.040001
 H          0.651231   -0.477901    1.180352
 C          7.579363    2.941626   -0.310220
 H          8.304525    2.850934    0.505222
 H          8.132808    2.821786   -1.248889
 H          7.180266    3.959370   -0.288265
 C         -7.579293    2.941526    0.310509
 H         -8.304625    2.850810   -0.504780
 H         -8.132534    2.821683    1.249300
 H         -7.180224    3.959279    0.288457
 C          0.711585    6.807969   -0.076923
 C         -0.711553    6.807955    0.077308
 C          1.486564    8.094122   -0.163918
 H          1.350410    8.703909    0.737838
 H          2.549297    7.874296   -0.282486
 H          1.154486    8.703557   -1.013455
 C         -1.486539    8.094093    0.164475
 H         -1.154447    8.703425    1.014080
 H         -1.350407    8.703990   -0.737208
 H         -2.549268    7.874245    0.283038
