       108
S0: Total Energy = -4959.97196130
 C         -6.673769   -0.542103    0.105085
 C         -6.483937    0.863180    0.204642
 C         -5.128400    1.199016    0.186381
 C         -4.255756    0.097924    0.074928
 C         -2.908512    0.512924    0.072462
 C         -2.765107    1.901596    0.176660
 C         -1.389605    2.194993    0.124912
 C         -0.703331    3.450183    0.080508
 S         -5.112292   -1.407607   -0.001868
 S         -4.283451    2.756145    0.284842
 C          6.673769   -0.542136   -0.105230
 C          6.483946    0.863148   -0.204791
 C          5.128408    1.198988   -0.186584
 C          4.255755    0.097895   -0.075208
 C          2.908514    0.512905   -0.072733
 C          2.765121    1.901582   -0.176863
 C          1.389621    2.194988   -0.125099
 C          0.703358    3.450181   -0.080631
 S          5.112279   -1.407649    0.001467
 S          4.283471    2.756124   -0.285015
 C         -0.712931    0.941213    0.017563
 N         -1.660218   -0.077237   -0.037270
 C          0.712937    0.941207   -0.017821
 N          1.660214   -0.077254    0.036948
 N         -1.392657    4.604558    0.117986
 C         -0.718480    5.753429    0.030855
 C          0.718526    5.753424   -0.030851
 N          1.392692    4.604553   -0.118045
 C         -1.560023    6.979949   -0.039499
 C         -2.686107    7.092480    0.791908
 C         -3.521128    8.205691    0.709105
 C         -3.254577    9.214977   -0.219200
 C         -2.147257    9.103414   -1.063366
 C         -1.302922    7.997593   -0.972403
 H         -2.897573    6.300630    1.503553
 H         -4.381929    8.283580    1.367674
 H         -3.907632   10.080721   -0.287361
 H         -1.940836    9.877145   -1.797681
 H         -0.449140    7.917614   -1.637578
 C          1.560080    6.979933    0.039565
 C          2.686164    7.092497   -0.791837
 C          3.521196    8.205696   -0.708977
 C          3.254656    9.214936    0.219381
 C          2.147335    9.103339    1.063543
 C          1.302990    7.997531    0.972523
 H          2.897622    6.300682   -1.503524
 H          4.381997    8.283611   -1.367543
 H          3.907719   10.080670    0.287586
 H          1.940923    9.877033    1.797898
 H          0.449208    7.917525    1.637694
 C         -7.968397   -1.102062    0.093710
 C         -8.473775   -2.391603    0.013417
 C         -7.679054   -3.633439   -0.069907
 O         -6.456787   -3.747327   -0.096756
 C         -8.641419   -4.756820   -0.113671
 C         -8.356287   -6.113841   -0.189505
 C         -9.433769   -6.986834   -0.216408
 C        -10.746800   -6.500578   -0.168230
 C        -11.029902   -5.142273   -0.093153
 C         -9.951271   -4.250475   -0.065282
 C         -9.886591   -2.766083    0.008219
 C        -11.002161   -1.942051    0.051897
 C        -12.343501   -2.431527    0.042478
 N        -13.455626   -2.780219    0.038010
 C        -10.957179   -0.516599    0.106064
 N        -10.981080    0.648415    0.149785
 H         -8.718806   -0.324711    0.167122
 H         -7.336976   -6.482844   -0.226235
 F         -9.245691   -8.310749   -0.288455
 F        -11.749571   -7.388866   -0.196415
 H        -12.067224   -4.839344   -0.059254
 C          7.968395   -1.102093   -0.093692
 C          8.473761   -2.391635   -0.013331
 C          7.679028   -3.633468    0.069915
 O          6.456757   -3.747352    0.096624
 C          8.641386   -4.756856    0.113686
 C          8.356240   -6.113880    0.189412
 C          9.433717   -6.986879    0.216365
 C         10.746754   -6.500625    0.168338
 C         11.029869   -5.142317    0.093368
 C          9.951245   -4.250512    0.065449
 C          9.886574   -2.766115   -0.007975
 C         11.002144   -1.942071   -0.051473
 C         12.343489   -2.431529   -0.041929
 N         13.455623   -2.780189   -0.037359
 C         10.957148   -0.516616   -0.105557
 N         10.981029    0.648404   -0.149146
 H          8.718815   -0.324744   -0.167019
 H          7.336924   -6.482880    0.226030
 F          9.245626   -8.310797    0.288319
 F         11.749518   -7.388920    0.196562
 H         12.067195   -4.839392    0.059580
 C         -7.592490    1.873651    0.322733
 H         -7.191151    2.890365    0.312637
 H         -8.310199    1.790730   -0.499874
 C          7.592507    1.873623   -0.322759
 H          7.191174    2.890338   -0.312590
 H          8.310192    1.790628    0.499862
 C         -1.491006   -1.454658   -0.496129
 H         -0.639702   -1.516894   -1.174176
 H         -1.356131   -2.151545    0.335525
 C          1.490987   -1.454704    0.495712
 H          0.639672   -1.516981    1.173740
 H          1.356124   -2.151537   -0.335990
 H          8.153685    1.745943   -1.255355
 H         -8.153641    1.745895    1.255333
 H          2.382382   -1.745273    1.055239
 H         -2.382411   -1.745186   -1.055659
       108
T1: Total Energy = -4959.92636076
 C         -6.661116   -0.541263    0.108467
 C         -6.462008    0.875648    0.201607
 C         -5.113009    1.200189    0.181086
 C         -4.235939    0.093494    0.075372
 C         -2.900876    0.497603    0.069872
 C         -2.747238    1.907657    0.164088
 C         -1.391664    2.194833    0.106245
 C         -0.702344    3.455853    0.069702
 S         -5.110177   -1.416988    0.009160
 S         -4.266501    2.764422    0.269058
 C          6.661101   -0.541270   -0.108481
 C          6.461992    0.875639   -0.201647
 C          5.112995    1.200184   -0.181073
 C          4.235926    0.093492   -0.075310
 C          2.900864    0.497603   -0.069789
 C          2.747225    1.907655   -0.164026
 C          1.391652    2.194832   -0.106170
 C          0.702332    3.455852   -0.069641
 S          5.110164   -1.416991   -0.009105
 S          4.266486    2.764416   -0.269042
 C         -0.700386    0.926526    0.007187
 N         -1.660131   -0.093879   -0.038094
 C          0.700374    0.926526   -0.007084
 N          1.660120   -0.093878    0.038205
 N         -1.393275    4.605737    0.098266
 C         -0.718169    5.757687    0.019582
 C          0.718155    5.757687   -0.019553
 N          1.393262    4.605736   -0.098222
 C         -1.560192    6.981572   -0.064929
 C         -2.702646    7.089309    0.744714
 C         -3.537788    8.201109    0.647791
 C         -3.255235    9.212170   -0.273810
 C         -2.131657    9.104682   -1.096887
 C         -1.286432    8.001144   -0.991174
 H         -2.926275    6.296183    1.451132
 H         -4.411197    8.276335    1.289677
 H         -3.908758   10.076501   -0.353316
 H         -1.913198    9.879911   -1.825971
 H         -0.419924    7.924181   -1.639921
 C          1.560178    6.981573    0.064942
 C          2.702632    7.089301   -0.744701
 C          3.537774    8.201103   -0.647792
 C          3.255220    9.212175    0.273797
 C          2.131641    9.104696    1.096874
 C          1.286417    8.001157    0.991175
 H          2.926261    6.296166   -1.451110
 H          4.411183    8.276321   -1.289678
 H          3.908743   10.076506    0.353293
 H          1.913182    9.879934    1.825950
 H          0.419909    7.924201    1.639923
 C         -7.958821   -1.091312    0.095066
 C         -8.467417   -2.388489    0.019013
 C         -7.669814   -3.634100   -0.040696
 O         -6.446799   -3.743486   -0.053924
 C         -8.628351   -4.759469   -0.078579
 C         -8.343129   -6.116591   -0.132805
 C         -9.421280   -6.990836   -0.158536
 C        -10.732259   -6.502095   -0.130584
 C        -11.015799   -5.141000   -0.077429
 C         -9.938222   -4.249391   -0.050672
 C         -9.870926   -2.764271    0.001595
 C        -10.991894   -1.933271    0.017150
 C        -12.330746   -2.423217    0.005315
 N        -13.443090   -2.774374   -0.001924
 C        -10.950230   -0.508815    0.037393
 N        -10.982952    0.657657    0.051087
 H         -8.707899   -0.312950    0.159241
 H         -7.323746   -6.486729   -0.154283
 F         -9.231814   -8.316967   -0.210232
 F        -11.737480   -7.388578   -0.156535
 H        -12.053295   -4.837291   -0.058552
 C          7.958808   -1.091318   -0.095114
 C          8.467416   -2.388489   -0.019038
 C          7.669830   -3.634107    0.040744
 O          6.446817   -3.743509    0.054011
 C          8.628381   -4.759465    0.078609
 C          8.343176   -6.116588    0.132873
 C          9.421338   -6.990821    0.158585
 C         10.732311   -6.502065    0.130576
 C         11.015833   -5.140969    0.077378
 C          9.938245   -4.249372    0.050640
 C          9.870930   -2.764254   -0.001665
 C         10.991884   -1.933238   -0.017288
 C         12.330744   -2.423162   -0.005492
 N         13.443096   -2.774298    0.001714
 C         10.950195   -0.508784   -0.037562
 N         10.982890    0.657689   -0.051298
 H          8.707880   -0.312954   -0.159345
 H          7.323798   -6.486738    0.154399
 F          9.231888   -8.316953    0.210316
 F         11.737542   -7.388537    0.156512
 H         12.053325   -4.837249    0.058455
 C         -7.575516    1.879817    0.312479
 H         -7.178604    2.898532    0.327139
 H         -8.275170    1.806880   -0.527200
 C          7.575497    1.879803   -0.312593
 H          7.178588    2.898519   -0.327249
 H          8.275195    1.806877    0.527052
 C         -1.494005   -1.472140   -0.497529
 H         -0.648445   -1.533332   -1.183005
 H         -1.350775   -2.166754    0.334380
 C          1.493999   -1.472132    0.497663
 H          0.648448   -1.533313    1.183151
 H          1.350758   -2.166758   -0.334233
 H          8.157863    1.735572   -1.229945
 H         -8.157929    1.735603    1.229804
 H          2.390342   -1.763505    1.048716
 H         -2.390341   -1.763521   -1.048588
       108
S1: Total Energy = -4959.91061501
 C         -6.662872   -0.539064    0.107374
 C         -6.470056    0.869459    0.201126
 C         -5.114282    1.199260    0.181185
 C         -4.242013    0.095880    0.074639
 C         -2.900240    0.504427    0.070989
 C         -2.750687    1.908710    0.167977
 C         -1.391117    2.197822    0.110104
 C         -0.702494    3.457312    0.072147
 S         -5.110730   -1.412742    0.006080
 S         -4.271169    2.762605    0.272750
 C          6.662867   -0.539073   -0.107442
 C          6.470054    0.869451   -0.201178
 C          5.114280    1.199254   -0.181253
 C          4.242008    0.095873   -0.074735
 C          2.900236    0.504422   -0.071084
 C          2.750686    1.908707   -0.168046
 C          1.391116    2.197821   -0.110167
 C          0.702497    3.457312   -0.072180
 S          5.110722   -1.412751   -0.006192
 S          4.271170    2.762601   -0.272797
 C         -0.702112    0.931040    0.009088
 N         -1.660270   -0.088199   -0.038074
 C          0.702108    0.931039   -0.009179
 N          1.660264   -0.088204    0.037962
 N         -1.393290    4.607900    0.102487
 C         -0.718490    5.759342    0.021383
 C          0.718499    5.759340   -0.021354
 N          1.393296    4.607899   -0.102489
 C         -1.560496    6.983209   -0.062343
 C         -2.702394    7.090846    0.748190
 C         -3.537712    8.202545    0.651962
 C         -3.256009    9.213657   -0.269861
 C         -2.133061    9.106293   -1.093842
 C         -1.287605    8.002892   -0.988793
 H         -2.925320    6.297681    1.454773
 H         -4.410592    8.277695    1.294573
 H         -3.909678   10.077923   -0.348828
 H         -1.915291    9.881543   -1.823108
 H         -0.421648    7.926074   -1.638280
 C          1.560508    6.983204    0.062407
 C          2.702406    7.090861   -0.748123
 C          3.537727    8.202554   -0.651864
 C          3.256026    9.213641    0.269989
 C          2.133079    9.106256    1.093968
 C          1.287620    8.002860    0.988886
 H          2.925330    6.297716   -1.454730
 H          4.410607    8.277721   -1.294473
 H          3.909699   10.077902    0.348981
 H          1.915311    9.881485    1.823256
 H          0.421663    7.926025    1.638371
 C         -7.965509   -1.096447    0.094474
 C         -8.469336   -2.387875    0.018082
 C         -7.668821   -3.632406   -0.049010
 O         -6.445505   -3.738150   -0.066237
 C         -8.625326   -4.757763   -0.088754
 C         -8.337375   -6.113874   -0.150148
 C         -9.413523   -6.990766   -0.176936
 C        -10.726309   -6.504821   -0.142943
 C        -11.013781   -5.145665   -0.082504
 C         -9.937884   -4.249203   -0.054543
 C         -9.877935   -2.769546    0.004568
 C        -10.999318   -1.938434    0.030086
 C        -12.337648   -2.428663    0.020709
 N        -13.449780   -2.781811    0.015754
 C        -10.957224   -0.514817    0.060493
 N        -10.987079    0.652071    0.083352
 H         -8.714853   -0.318041    0.159842
 H         -7.317104   -6.481314   -0.176314
 F         -9.221428   -8.316197   -0.235477
 F        -11.728443   -7.394579   -0.170406
 H        -12.051926   -4.844455   -0.059262
 C          7.965504   -1.096455   -0.094515
 C          8.469331   -2.387883   -0.018111
 C          7.668818   -3.632416    0.048971
 O          6.445501   -3.738163    0.066158
 C          8.625325   -4.757770    0.088766
 C          8.337375   -6.113880    0.150170
 C          9.413524   -6.990769    0.177010
 C         10.726310   -6.504821    0.143055
 C         11.013780   -5.145665    0.082604
 C          9.937882   -4.249206    0.054592
 C          9.877931   -2.769551   -0.004552
 C         10.999312   -1.938436   -0.030060
 C         12.337643   -2.428659   -0.020614
 N         13.449777   -2.781801   -0.015602
 C         10.957213   -0.514820   -0.060526
 N         10.987063    0.652067   -0.083429
 H          8.714849   -0.318048   -0.159858
 H          7.317104   -6.481322    0.176307
 F          9.221430   -8.316200    0.235566
 F         11.728445   -7.394576    0.170568
 H         12.051926   -4.844453    0.059392
 C         -7.580526    1.877596    0.314968
 H         -7.181397    2.895517    0.309658
 H         -8.293305    1.795542   -0.512354
 C          7.580527    1.877589   -0.314987
 H          7.181399    2.895510   -0.309663
 H          8.293295    1.795519    0.512342
 C         -1.494958   -1.468647   -0.491915
 H         -0.651866   -1.532287   -1.180060
 H         -1.349047   -2.159133    0.342809
 C          1.494948   -1.468661    0.491773
 H          0.651854   -1.532313    1.179915
 H          1.349037   -2.159129   -0.342966
 H          8.148351    1.747355   -1.243422
 H         -8.148339    1.747345    1.243408
 H          2.393004   -1.762503    1.038449
 H         -2.393016   -1.762475   -1.038595
