       106
S0: Total Energy = -4958.80284734
 C         -6.669822   -0.532871    0.095205
 C         -6.483308    0.872378    0.201484
 C         -5.128686    1.211300    0.182566
 C         -4.253367    0.113099    0.064862
 C         -2.907276    0.531258    0.064188
 C         -2.765705    1.920025    0.173820
 C         -1.391127    2.216350    0.120928
 C         -0.708224    3.476349    0.085204
 S         -5.106391   -1.394042   -0.017809
 S         -4.286098    2.769361    0.290147
 C          6.669859   -0.532852   -0.095085
 C          6.483340    0.872396   -0.201380
 C          5.128718    1.211313   -0.182439
 C          4.253404    0.113115   -0.064674
 C          2.907311    0.531268   -0.064012
 C          2.765734    1.920029   -0.173707
 C          1.391154    2.216350   -0.120827
 C          0.708246    3.476348   -0.085164
 S          5.106436   -1.394018    0.018081
 S          4.286123    2.769367   -0.290073
 C         -0.713489    0.964395    0.012592
 N         -1.657806   -0.055327   -0.047307
 C          0.713522    0.964397   -0.012428
 N          1.657844   -0.055316    0.047524
 N         -1.395110    4.621119    0.171733
 C         -0.709090    5.770052    0.088572
 C          0.709102    5.770051   -0.088645
 N          1.395127    4.621116   -0.171749
 C         -1.434712    7.033912    0.181313
 C         -2.832703    7.034393    0.358287
 C         -3.537621    8.222324    0.448988
 C         -2.850445    9.442203    0.363200
 C         -1.475099    9.457872    0.188580
 C         -0.729439    8.263271    0.092683
 H         -3.342760    6.080127    0.421518
 H         -4.615157    8.208655    0.585535
 H         -3.393258   10.380697    0.433127
 H         -0.975189   10.417362    0.126358
 C          1.434718    7.033910   -0.181448
 C          2.832708    7.034388   -0.358421
 C          3.537621    8.222318   -0.449181
 C          2.850439    9.442198   -0.363455
 C          1.475094    9.457869   -0.188836
 C          0.729439    8.263270   -0.092879
 H          3.342770    6.080121   -0.421604
 H          4.615157    8.208647   -0.585727
 H          3.393249   10.380691   -0.433429
 H          0.975179   10.417361   -0.126662
 C         -7.963124   -1.095888    0.082272
 C         -8.465323   -2.386299   -0.003009
 C         -7.667476   -3.625860   -0.090064
 O         -6.444923   -3.736354   -0.118606
 C         -8.626945   -4.751647   -0.134750
 C         -8.338404   -6.107813   -0.212966
 C         -9.413669   -6.983538   -0.239960
 C        -10.727906   -6.500753   -0.189539
 C        -11.014432   -5.143292   -0.112199
 C         -9.938075   -4.248765   -0.084223
 C         -9.877196   -2.764332   -0.008908
 C        -10.994763   -1.943014    0.034594
 C        -12.334915   -2.435722    0.024577
 N        -13.446178   -2.787131    0.019670
 C        -10.953070   -0.517440    0.088310
 N        -10.979394    0.647550    0.131307
 H         -8.715368   -0.320736    0.159878
 H         -7.318196   -6.474156   -0.251375
 F         -9.222257   -8.306838   -0.314162
 F        -11.728383   -7.391594   -0.217787
 H        -12.052489   -4.843083   -0.076592
 C          7.963155   -1.095882   -0.082229
 C          8.465332   -2.386301    0.003033
 C          7.667460   -3.625848    0.090069
 O          6.444906   -3.736312    0.118664
 C          8.626907   -4.751657    0.134686
 C          8.338339   -6.107819    0.212865
 C          9.413583   -6.983570    0.239774
 C         10.727829   -6.500814    0.189308
 C         11.014384   -5.143356    0.112009
 C          9.938047   -4.248801    0.084120
 C          9.877196   -2.764363    0.008875
 C         10.994770   -1.943051   -0.034581
 C         12.334921   -2.435762   -0.024628
 N         13.446188   -2.787159   -0.019772
 C         10.953078   -0.517472   -0.088164
 N         10.979384    0.647523   -0.131049
 H          8.715408   -0.320744   -0.159894
 H          7.318124   -6.474139    0.251306
 F          9.222145   -8.306868    0.313933
 F         11.728287   -7.391679    0.217471
 H         12.052446   -4.843171    0.076364
 C         -7.594234    1.879401    0.326381
 H         -7.195438    2.897170    0.321936
 H         -8.312575    1.799442   -0.495977
 C          7.594256    1.879419   -0.326369
 H          7.195464    2.897189   -0.321829
 H          8.312705    1.799423    0.495890
 C         -1.485414   -1.431362   -0.509870
 H         -0.625878   -1.492018   -1.177358
 H         -1.362144   -2.131566    0.320765
 C          1.485462   -1.431329    0.510154
 H          0.625928   -1.491958    1.177646
 H          1.362194   -2.131574   -0.320448
 H          8.153979    1.745004   -1.258875
 H         -8.154081    1.744948    1.258805
 H          2.370499   -1.717656    1.081904
 H         -2.370448   -1.717722   -1.081609
       106
T1: Total Energy = -4958.75778949
 C         -6.657416   -0.532294    0.098866
 C         -6.461164    0.884399    0.198738
 C         -5.112947    1.211551    0.177295
 C         -4.233480    0.107297    0.065165
 C         -2.899453    0.514010    0.061101
 C         -2.747419    1.924053    0.160051
 C         -1.393112    2.214485    0.099758
 C         -0.707612    3.479971    0.073304
 S         -5.104699   -1.404566   -0.006242
 S         -4.268453    2.776263    0.274196
 C          6.657220   -0.532439   -0.098878
 C          6.460993    0.884257   -0.198742
 C          5.112783    1.211441   -0.177332
 C          4.233293    0.107204   -0.065230
 C          2.899274    0.513945   -0.061193
 C          2.747272    1.923993   -0.160130
 C          1.392970    2.214455   -0.099852
 C          0.707499    3.479956   -0.073386
 S          5.104479   -1.404679    0.006191
 S          4.268327    2.776173   -0.274234
 C         -0.700204    0.946746    0.000924
 N         -1.657609   -0.074881   -0.048435
 C          0.700034    0.946730   -0.001037
 N          1.657416   -0.074918    0.048320
 N         -1.396904    4.620176    0.151813
 C         -0.709676    5.772346    0.079730
 C          0.709616    5.772331   -0.079767
 N          1.396817    4.620147   -0.151872
 C         -1.436673    7.033480    0.165948
 C         -2.836807    7.033127    0.328923
 C         -3.541951    8.220881    0.413585
 C         -2.853438    9.440947    0.335862
 C         -1.476616    9.457640    0.175132
 C         -0.729877    8.263241    0.085480
 H         -3.348177    6.079306    0.386574
 H         -4.620674    8.207563    0.539406
 H         -3.397154   10.379135    0.401422
 H         -0.976529   10.417302    0.119237
 C          1.436643    7.033450   -0.165953
 C          2.836777    7.033068   -0.328925
 C          3.541949    8.220807   -0.413554
 C          2.853466    9.440888   -0.335800
 C          1.476644    9.457609   -0.175072
 C          0.729876    8.263226   -0.085454
 H          3.348124    6.079236   -0.386601
 H          4.620673    8.207466   -0.539373
 H          3.397205   10.379064   -0.401333
 H          0.976580   10.417282   -0.119152
 C         -7.953944   -1.084832    0.082717
 C         -8.459878   -2.382631    0.001866
 C         -7.660040   -3.626685   -0.056324
 O         -6.436791   -3.733955   -0.068513
 C         -8.616608   -4.753810   -0.093661
 C         -8.328969   -6.110530   -0.145198
 C         -9.405583   -6.986665   -0.170514
 C        -10.717491   -6.500236   -0.144885
 C        -11.003468   -5.139561   -0.094686
 C         -9.927435   -4.246079   -0.068308
 C         -9.862819   -2.760727   -0.019345
 C        -10.985030   -1.931582   -0.011418
 C        -12.323108   -2.423691   -0.025297
 N        -13.434858   -2.776632   -0.034346
 C        -10.945480   -0.506924    0.000142
 N        -10.979611    0.659561    0.005802
 H         -8.704629   -0.308259    0.149730
 H         -7.308928   -6.478947   -0.164890
 F         -9.213749   -8.312525   -0.219509
 F        -11.721066   -7.388582   -0.170160
 H        -12.041499   -4.837588   -0.077464
 C          7.953763   -1.084950   -0.082688
 C          8.459819   -2.382705   -0.001836
 C          7.660173   -3.626887    0.056293
 O          6.436942   -3.734362    0.068437
 C          8.616916   -4.753863    0.093649
 C          8.329484   -6.110629    0.145150
 C          9.406230   -6.986600    0.170491
 C         10.718064   -6.499969    0.144920
 C         11.003835   -5.139249    0.094759
 C          9.927667   -4.245930    0.068358
 C          9.862810   -2.760586    0.019422
 C         10.984848   -1.931210    0.011557
 C         12.323041   -2.423007    0.025472
 N         13.434883   -2.775659    0.034551
 C         10.944951   -0.506561    0.000019
 N         10.978682    0.659936   -0.005638
 H          8.704410   -0.308332   -0.149656
 H          7.309498   -6.479202    0.164795
 F          9.214596   -8.312490    0.219453
 F         11.721773   -7.388162    0.170215
 H         12.041821   -4.837121    0.077582
 C         -7.576383    1.885803    0.317554
 H         -7.181545    2.905307    0.334182
 H         -8.279680    1.814308   -0.519157
 C          7.576240    1.885636   -0.317522
 H          7.181430    2.905151   -0.334137
 H          8.279521    1.814106    0.519202
 C         -1.488537   -1.451220   -0.513039
 H         -0.635232   -1.510017   -1.188925
 H         -1.355705   -2.150051    0.317063
 C          1.488307   -1.451259    0.512908
 H          0.634998   -1.510041    1.188790
 H          1.355462   -2.150077   -0.317202
 H          8.154079    1.737098   -1.237062
 H         -8.154212    1.737265    1.237101
 H          2.378845   -1.738399    1.075580
 H         -2.379084   -1.738333   -1.075709
       106
S1: Total Energy = -4958.74206807
 C         -6.659590   -0.529362    0.090930
 C         -6.469816    0.879195    0.190102
 C         -5.114834    1.211695    0.170475
 C         -4.239885    0.110837    0.058989
 C         -2.899150    0.522308    0.058339
 C         -2.751561    1.926130    0.159949
 C         -1.392588    2.218476    0.101907
 C         -0.707781    3.482120    0.074738
 S         -5.105221   -1.399435   -0.012964
 S         -4.273997    2.775427    0.271621
 C          6.659670   -0.529325   -0.090806
 C          6.469891    0.879230   -0.189995
 C          5.114903    1.211719   -0.170398
 C          4.239960    0.110861   -0.058893
 C          2.899221    0.522324   -0.058268
 C          2.751626    1.926141   -0.159914
 C          1.392650    2.218481   -0.101899
 C          0.707835    3.482122   -0.074772
 S          5.105305   -1.399401    0.013120
 S          4.274059    2.775444   -0.271570
 C         -0.702243    0.952613    0.002237
 N         -1.657602   -0.067613   -0.050511
 C          0.702310    0.952618   -0.002203
 N          1.657675   -0.067601    0.050591
 N         -1.396911    4.623242    0.154280
 C         -0.709848    5.774726    0.080843
 C          0.709885    5.774728   -0.080978
 N          1.396956    4.623246   -0.154363
 C         -1.436486    7.036020    0.167952
 C         -2.836406    7.035830    0.332912
 C         -3.541322    8.223613    0.418367
 C         -2.852851    9.443716    0.339455
 C         -1.476284    9.460345    0.176806
 C         -0.729704    8.265898    0.086329
 H         -3.347689    6.082016    0.391419
 H         -4.619864    8.210404    0.545709
 H         -3.396472   10.381908    0.405588
 H         -0.976272   10.419979    0.120000
 C          1.436513    7.036024   -0.168143
 C          2.836433    7.035837   -0.333104
 C          3.541339    8.223623   -0.418617
 C          2.852857    9.443724   -0.339763
 C          1.476290    9.460349   -0.177113
 C          0.729721    8.265900   -0.086579
 H          3.347723    6.082026   -0.391567
 H          4.619880    8.210417   -0.545960
 H          3.396470   10.381917   -0.405941
 H          0.976271   10.419981   -0.120352
 C         -7.960552   -1.089677    0.071302
 C         -8.460967   -2.382500   -0.005783
 C         -7.657899   -3.626277   -0.049919
 O         -6.434345   -3.730132   -0.060078
 C         -8.612376   -4.754008   -0.074236
 C         -8.321902   -6.110574   -0.107363
 C         -9.396523   -6.989625   -0.122679
 C        -10.710279   -6.505459   -0.105649
 C        -11.000271   -5.145823   -0.074436
 C         -9.925946   -4.247327   -0.058115
 C         -9.868591   -2.766525   -0.030245
 C        -10.991012   -1.936802   -0.044609
 C        -12.328543   -2.429148   -0.058347
 N        -13.440080   -2.783993   -0.067953
 C        -10.950156   -0.512874   -0.062347
 N        -10.980337    0.654029   -0.081870
 H         -8.712328   -0.313309    0.133341
 H         -7.300935   -6.476761   -0.120653
 F         -9.201988   -8.315595   -0.153546
 F        -11.710759   -7.397358   -0.120391
 H        -12.038991   -4.845901   -0.062927
 C          7.960621   -1.089672   -0.071203
 C          8.460980   -2.382514    0.005880
 C          7.657859   -3.626263    0.049872
 O          6.434300   -3.730067    0.059993
 C          8.612291   -4.754033    0.074090
 C          8.321759   -6.110591    0.107030
 C          9.396342   -6.989690    0.122270
 C         10.710119   -6.505576    0.105357
 C         11.000169   -5.145949    0.074334
 C          9.925883   -4.247403    0.058089
 C          9.868585   -2.766595    0.030393
 C         10.991019   -1.936893    0.044999
 C         12.328546   -2.429245    0.058884
 N         13.440084   -2.784085    0.068638
 C         10.950162   -0.512968    0.062924
 N         10.980291    0.653934    0.082550
 H          8.712427   -0.313335   -0.133276
 H          7.300776   -6.476737    0.120231
 F          9.201749   -8.315656    0.152950
 F         11.710560   -7.397520    0.120021
 H         12.038903   -4.846071    0.062901
 C         -7.581831    1.884810    0.311383
 H         -7.185807    2.903828    0.293055
 H         -8.306562    1.794854   -0.504494
 C          7.581882    1.884867   -0.311323
 H          7.185874    2.903883   -0.292550
 H          8.306887    1.794663    0.504279
 C         -1.489025   -1.446725   -0.507557
 H         -0.636771   -1.509214   -1.184242
 H         -1.355803   -2.140619    0.326483
 C          1.489096   -1.446695    0.507694
 H          0.636855   -1.509151    1.184398
 H          1.355853   -2.140619   -0.326317
 H          8.134716    1.760227   -1.249709
 H         -8.134988    1.759888    1.249537
 H          2.380381   -1.736352    1.067641
 H         -2.380303   -1.736396   -1.067510
