       122
S0: Total Energy = -5299.44562296
 C         -7.083469   -1.607291    0.150624
 C         -6.107366   -2.617328    0.200630
 C         -4.809110   -2.116904    0.152936
 C         -4.747030   -0.708811    0.064100
 C         -3.419933   -0.226980    0.032856
 C         -2.502661   -1.261863    0.088723
 C         -1.148427   -0.761151    0.048581
 C         -1.237034    0.652152   -0.059920
 C         -0.086675    1.423533   -0.105784
 S         -6.330548    0.004365    0.038650
 S         -3.210279   -2.854498    0.184308
 C         -2.709933    1.122933   -0.087681
 H         -6.371577   -3.666709    0.267742
 H         -0.135699    2.505554   -0.181243
 C          7.083471    1.607285   -0.150797
 C          6.107367    2.617318   -0.200866
 C          4.809110    2.116887   -0.153255
 C          4.747030    0.708794   -0.064421
 C          3.419934    0.226960   -0.033232
 C          2.502661    1.261841   -0.089129
 C          1.148427    0.761127   -0.049009
 C          1.237034   -0.652176    0.059496
 C          0.086675   -1.423558    0.105353
 S          6.330551   -0.004376   -0.038893
 S          3.210279    2.854476   -0.184693
 C          2.709933   -1.122956    0.087283
 H          6.371576    3.666701   -0.267940
 H          0.135698   -2.505578    0.180814
 C         -3.117566    1.767554   -1.432247
 C         -4.297093    2.522270   -1.523520
 C         -4.727195    3.038185   -2.744740
 C         -3.999374    2.823379   -3.922582
 C         -2.828553    2.062209   -3.829683
 C         -2.394177    1.541794   -2.609728
 H         -4.883856    2.720845   -0.631796
 H         -5.647164    3.617275   -2.780055
 H         -2.242516    1.869445   -4.725562
 H         -1.483387    0.952557   -2.584424
 C         -2.950357    2.052109    1.120641
 C         -2.652974    3.420856    1.036962
 C         -2.785675    4.253071    2.146737
 C         -3.223155    3.756036    3.382019
 C         -3.512856    2.389469    3.463531
 C         -3.378574    1.551200    2.355704
 H         -2.325440    3.846696    0.093293
 H         -2.547347    5.309894    2.048678
 H         -3.851172    1.968849    4.407803
 H         -3.607043    0.495459    2.463518
 C          2.950382   -2.052123   -1.121041
 C          2.652972   -3.420866   -1.037383
 C          2.785696   -4.253073   -2.147160
 C          3.223226   -3.756035   -3.382423
 C          3.512954   -2.389474   -3.463914
 C          3.378650   -1.551211   -2.356084
 H          2.325400   -3.846709   -0.093728
 H          2.547347   -5.309893   -2.049118
 H          3.851312   -1.968851   -4.408170
 H          3.607142   -0.495474   -2.463881
 C          3.117540   -1.767586    1.431853
 C          4.297060   -2.522309    1.523141
 C          4.727137   -3.038235    2.744367
 C          3.999297   -2.823430    3.922197
 C          2.828484   -2.062250    3.829282
 C          2.394133   -1.541827    2.609323
 H          4.883837   -2.720883    0.631426
 H          5.647101   -3.617332    2.779695
 H          2.242433   -1.869486    4.725152
 H          1.483347   -0.952582    2.584006
 C         -4.451191    3.412489   -5.238041
 H         -4.104337    4.448542   -5.349440
 H         -4.057751    2.844299   -6.087183
 C         -3.401528    4.668926    4.572111
 H         -3.309551    4.120047    5.514990
 H         -2.660229    5.475275    4.573017
 C          3.401621   -4.668920   -4.572516
 H          2.660245   -5.475200   -4.573505
 H          3.309781   -4.120015   -5.515394
 C          4.451084   -3.412552    5.237661
 H          4.057716   -2.844303    6.086798
 H          4.104129   -4.448568    5.349093
 H         -5.543682    3.428095   -5.315088
 H         -4.393181    5.140650    4.564823
 H          4.393228   -5.140740   -4.565147
 H          5.543575   -3.428264    5.314686
 C          8.454366    1.956007   -0.186329
 C          9.662910    1.285759   -0.153851
 H          8.595533    3.033444   -0.256772
 C          9.797408   -0.155155   -0.063130
 C         10.857127    2.137457   -0.217505
 N         11.111644   -0.670340   -0.032129
 O          8.836614   -0.922061   -0.013247
 N         12.102680    1.473180   -0.179121
 O         10.811164    3.361226   -0.299433
 C         12.258226    0.102457   -0.085514
 C         11.246414   -2.132976    0.065170
 C         13.304552    2.320628   -0.241987
 S         13.783160   -0.599809   -0.039173
 H         11.796519   -2.512770   -0.797408
 H         11.792421   -2.395397    0.972949
 H         10.241726   -2.545796    0.090421
 H         13.906394    2.178521    0.657310
 H         13.904609    2.048821   -1.112051
 H         12.964751    3.349892   -0.316708
 C         -8.454362   -1.955998    0.186379
 C         -9.662906   -1.285737    0.154134
 H         -8.595528   -3.033431    0.256886
 C         -9.797410    0.155170    0.063304
 C        -10.857116   -2.137417    0.218154
 N        -11.111649    0.670378    0.032773
 O         -8.836622    0.922050    0.012931
 N        -12.102671   -1.473119    0.180183
 O        -10.811148   -3.361187    0.300065
 C        -12.258226   -0.102398    0.086558
 C        -11.246427    2.133011   -0.064557
 C        -13.304536   -2.320544    0.243484
 S        -13.783163    0.599888    0.040638
 H        -11.792601    2.395411   -0.972245
 H        -11.796370    2.512832    0.798109
 H        -10.241741    2.545822   -0.090020
 H        -13.904364   -2.048593    1.113659
 H        -13.906610   -2.178574   -0.655681
 H        -12.964727   -3.349801    0.318274
       122
T1: Total Energy = -5299.39593406
 C         -7.062498    1.610972   -0.142345
 C         -6.067362    2.625751   -0.190231
 C         -4.784056    2.123381   -0.140645
 C         -4.720692    0.701148   -0.051648
 C         -3.418861    0.220749   -0.017662
 C         -2.467773    1.268604   -0.071649
 C         -1.152684    0.771175   -0.039389
 C         -1.238228   -0.666088    0.063108
 C         -0.103475   -1.433070    0.097468
 S         -6.322206   -0.005977   -0.028954
 S         -3.181226    2.867253   -0.168573
 C         -2.713592   -1.131177    0.098857
 H         -6.330345    3.675023   -0.257558
 H         -0.151963   -2.515382    0.166066
 C          7.062498   -1.610995    0.142352
 C          6.067363   -2.625775    0.190239
 C          4.784058   -2.123407    0.140619
 C          4.720693   -0.701175    0.051609
 C          3.418862   -0.220776    0.017620
 C          2.467774   -1.268631    0.071613
 C          1.152685   -0.771202    0.039377
 C          1.238228    0.666061   -0.063122
 C          0.103475    1.433044   -0.097477
 S          6.322207    0.005950    0.028914
 S          3.181229   -2.867281    0.168522
 C          2.713592    1.131150   -0.098891
 H          6.330348   -3.675045    0.257592
 H          0.151963    2.515355   -0.166085
 C         -3.118070   -1.764554    1.449710
 C         -4.296913   -2.519439    1.550675
 C         -4.722955   -3.022930    2.777973
 C         -3.992382   -2.794680    3.952146
 C         -2.823185   -2.032683    3.849146
 C         -2.393075   -1.523414    2.622937
 H         -4.885930   -2.727274    0.662736
 H         -5.641956   -3.602820    2.821590
 H         -2.235875   -1.829256    4.741681
 H         -1.483861   -0.932036    2.590338
 C         -2.964742   -2.060408   -1.106400
 C         -2.686840   -3.432816   -1.018045
 C         -2.826710   -4.264808   -2.127008
 C         -3.251998   -3.763750   -3.365025
 C         -3.521217   -2.393191   -3.450850
 C         -3.378753   -1.554800   -2.344341
 H         -2.369369   -3.861470   -0.072290
 H         -2.604268   -5.324733   -2.026046
 H         -3.848939   -1.969570   -4.397402
 H         -3.591484   -0.496061   -2.455887
 C          2.964763    2.060377    1.106363
 C          2.686884    3.432789    1.018009
 C          2.826777    4.264779    2.126971
 C          3.252069    3.763713    3.364984
 C          3.521272    2.393150    3.450806
 C          3.378783    1.554761    2.344298
 H          2.369414    3.861449    0.072256
 H          2.604351    5.324707    2.026011
 H          3.849000    1.969524    4.397353
 H          3.591503    0.496020    2.455839
 C          3.118054    1.764536   -1.449745
 C          4.296807    2.519569   -1.550668
 C          4.722849    3.023084   -2.777956
 C          3.992368    2.794712   -3.952162
 C          2.823262    2.032570   -3.849204
 C          2.393151    1.523278   -2.623005
 H          4.885746    2.727507   -0.662702
 H          5.641779    3.603091   -2.821538
 H          2.236025    1.829047   -4.741765
 H          1.484010    0.931785   -2.590440
 C         -4.442127   -3.369696    5.274306
 H         -4.126857   -4.416355    5.379496
 H         -4.018040   -2.814592    6.117143
 C         -3.438666   -4.676320   -4.553895
 H         -3.333152   -4.131209   -5.497482
 H         -2.710655   -5.494594   -4.548886
 C          3.438762    4.676280    4.553853
 H          2.710751    5.494554    4.548860
 H          3.333266    4.131167    5.497441
 C          4.442111    3.369751   -5.274312
 H          4.018124    2.814584   -6.117158
 H          4.126732    4.416374   -5.379537
 H         -5.533328   -3.350963    5.367934
 H         -4.437960   -5.131553   -4.550204
 H          4.438056    5.131513    4.550142
 H          5.533319    3.351136   -5.367890
 C          8.424379   -1.963656    0.182487
 C          9.642541   -1.287234    0.153806
 H          8.566130   -3.040212    0.253055
 C          9.780661    0.149454    0.063504
 C         10.832613   -2.137879    0.221904
 N         11.096580    0.664344    0.037628
 O          8.820827    0.921167    0.009053
 N         12.081718   -1.476826    0.189779
 O         10.784454   -3.363518    0.302990
 C         12.241438   -0.108174    0.096509
 C         11.232079    2.126508   -0.060186
 C         13.279934   -2.328252    0.258878
 S         13.769940    0.592634    0.056688
 H         11.778907    2.507035    0.804227
 H         11.782232    2.388304   -0.965722
 H         10.227572    2.539456   -0.089978
 H         13.885984   -2.190324   -0.638345
 H         13.877969   -2.056729    1.130473
 H         12.935861   -3.356063    0.334447
 C         -8.424378    1.963645   -0.182415
 C         -9.642550    1.287239   -0.153727
 H         -8.566119    3.040206   -0.252930
 C         -9.780697   -0.149450   -0.063482
 C        -10.832607    2.137911   -0.221748
 N        -11.096625   -0.664317   -0.037631
 O         -8.820879   -0.921179   -0.008985
 N        -12.081724    1.476880   -0.189642
 O        -10.784425    3.363550   -0.302814
 C        -12.241469    0.108225   -0.096467
 C        -11.232151   -2.126484    0.060110
 C        -13.279925    2.328333   -0.258677
 S        -13.769982   -0.592562   -0.056729
 H        -11.782297   -2.388317    0.965639
 H        -11.778995   -2.506955   -0.804316
 H        -10.227651   -2.539451    0.089869
 H        -13.877930    2.056940   -1.130335
 H        -13.886012    2.190289    0.638501
 H        -12.935834    3.356149   -0.334096
       122
S1: Total Energy = -5299.37438351
 C         -7.068813    1.610866   -0.149832
 C         -6.081133    2.622041   -0.200651
 C         -4.790577    2.117665   -0.149888
 C         -4.728805    0.702262   -0.057890
 C         -3.417082    0.222049   -0.022717
 C         -2.476748    1.266380   -0.078920
 C         -1.150981    0.769113   -0.044592
 C         -1.237213   -0.663059    0.063487
 C         -0.098260   -1.431592    0.103637
 S         -6.326389   -0.005779   -0.032781
 S         -3.189664    2.861354   -0.179797
 C         -2.711424   -1.128452    0.096969
 H         -6.342534    3.671578   -0.270430
 H         -0.146945   -2.513473    0.177397
 C          7.068822   -1.610895    0.150063
 C          6.081146   -2.622073    0.200888
 C          4.790590   -2.117708    0.150015
 C          4.728817   -0.702309    0.057952
 C          3.417093   -0.222102    0.022691
 C          2.476760   -1.266433    0.078882
 C          1.150994   -0.769169    0.044495
 C          1.237226    0.663004   -0.063593
 C          0.098273    1.431536   -0.103741
 S          6.326396    0.005743    0.032929
 S          3.189678   -2.861400    0.179873
 C          2.711440    1.128396   -0.097043
 H          6.342552   -3.671605    0.270734
 H          0.146958    2.513418   -0.177487
 C         -3.119141   -1.758462    1.447775
 C         -4.294425   -2.519369    1.546611
 C         -4.722648   -3.020132    2.774063
 C         -3.997999   -2.783304    3.950540
 C         -2.832682   -2.014986    3.849628
 C         -2.400711   -1.507786    2.623401
 H         -4.878736   -2.733533    0.657116
 H         -5.638675   -3.604740    2.816335
 H         -2.250488   -1.804598    4.743847
 H         -1.495513   -0.910063    2.592504
 C         -2.955723   -2.058472   -1.108799
 C         -2.681994   -3.431592   -1.018438
 C         -2.816649   -4.262945   -2.128488
 C         -3.232349   -3.760487   -3.369300
 C         -3.497249   -2.389061   -3.456963
 C         -3.359656   -1.551250   -2.349623
 H         -2.372122   -3.861264   -0.070635
 H         -2.597798   -5.323473   -2.026297
 H         -3.817386   -1.964592   -4.405693
 H         -3.568121   -0.491713   -2.461976
 C          2.955719    2.058459    1.108698
 C          2.682302    3.431631    1.018165
 C          2.816940    4.263056    2.128164
 C          3.232313    3.760621    3.369094
 C          3.496908    2.389147    3.456926
 C          3.359334    1.551265    2.349637
 H          2.372699    3.861284    0.070266
 H          2.598337    5.323621    2.025837
 H          3.816790    1.964695    4.405750
 H          3.567556    0.491695    2.462124
 C          3.119187    1.758368   -1.447854
 C          4.294526    2.519188   -1.546710
 C          4.722767    3.019914   -2.774171
 C          3.998079    2.783138   -3.950635
 C          2.832705    2.014909   -3.849701
 C          2.400717    1.507745   -2.623465
 H          4.878867    2.733311   -0.657224
 H          5.638837    3.604454   -2.816460
 H          2.250478    1.804566   -4.743909
 H          1.495472    0.910094   -2.592549
 C         -4.450567   -3.355422    5.272813
 H         -4.139582   -4.403300    5.378626
 H         -4.024681   -2.801417    6.115405
 C         -3.413552   -4.672377   -4.559411
 H         -3.298020   -4.127955   -5.502206
 H         -2.689503   -5.494073   -4.548311
 C          3.413501    4.672580    4.559154
 H          2.689628    5.494428    4.547852
 H          3.297688    4.128268    5.501978
 C          4.450668    3.355218   -5.272917
 H          4.024714    2.801252   -6.115500
 H          4.139772    4.403124   -5.378722
 H         -5.541754   -3.332397    5.365811
 H         -4.415026   -5.122788   -4.563532
 H          4.415070    5.122778    4.563411
 H          5.541851    3.332098   -5.365940
 C          8.436652   -1.961660    0.190285
 C          9.651503   -1.284920    0.158441
 H          8.578969   -3.038050    0.264156
 C          9.787292    0.151972    0.063082
 C         10.842862   -2.133693    0.229152
 N         11.102852    0.667695    0.032498
 O          8.826152    0.923271    0.007481
 N         12.090790   -1.470332    0.195206
 O         10.796951   -3.360003    0.314360
 C         12.248709   -0.102514    0.093975
 C         11.235631    2.129622   -0.073327
 C         13.289847   -2.320209    0.269874
 S         13.777675    0.600952    0.047887
 H         11.782770    2.515993    0.788304
 H         11.783988    2.387679   -0.981022
 H         10.230085    2.539999   -0.103959
 H         13.893505   -2.192002   -0.630469
 H         13.890046   -2.039077    1.136861
 H         12.946011   -3.347171    0.357219
 C         -8.436640    1.961653   -0.189966
 C         -9.651510    1.284941   -0.158199
 H         -8.578937    3.038055   -0.263713
 C         -9.787353   -0.151956   -0.062984
 C        -10.842839    2.133765   -0.228814
 N        -11.102931   -0.667641   -0.032563
 O         -8.826245   -0.923297   -0.007416
 N        -12.090790    1.470438   -0.195057
 O        -10.796884    3.360094   -0.313717
 C        -12.248760    0.102612   -0.094019
 C        -11.235764   -2.129576    0.073077
 C        -13.289815    2.320363   -0.269684
 S        -13.777752   -0.600811   -0.048133
 H        -11.784184   -2.387726    0.980708
 H        -11.782863   -2.515826   -0.788634
 H        -10.230233   -2.539988    0.103722
 H        -13.889998    2.039323   -1.136711
 H        -13.893504    2.192103    0.630631
 H        -12.945942    3.347322   -0.356929
