        77
S0: Total Energy = -5962.95767120
 C         -6.643417    1.242078    0.215628
 C         -6.486265    2.640258    0.342642
 C         -5.134010    3.004652    0.302959
 C         -4.242480    1.926717    0.150724
 C         -2.901911    2.368911    0.131518
 C         -2.781999    3.757221    0.260399
 C         -1.413917    4.075746    0.177005
 C         -0.714288    5.323621    0.118000
 C          0.714288    5.323621   -0.117978
 S         -5.073142    0.407988    0.057028
 S         -4.318040    4.575004    0.420670
 C          6.643416    1.242076   -0.215654
 C          6.486263    2.640256   -0.342663
 C          5.134010    3.004652   -0.302959
 C          4.242481    1.926718   -0.150715
 C          2.901912    2.368912   -0.131503
 C          2.781999    3.757222   -0.260382
 C          1.413918    4.075747   -0.176981
 C          0.716317    2.840112   -0.033280
 C         -0.716316    2.840111    0.033305
 S          5.073143    0.407989   -0.057019
 S          4.318040    4.575005   -0.420660
 C         -7.908035    0.611005    0.216573
 C         -8.324327   -0.694689    0.112385
 C         -7.569679   -1.946899   -0.040375
 O         -6.354369   -2.111700   -0.111217
 C         -8.587174   -3.046516   -0.097436
 C         -8.389185   -4.412110   -0.235613
 C         -9.516284   -5.240382   -0.261873
 C        -10.812809   -4.696205   -0.150600
 C        -10.998487   -3.316515   -0.011604
 C         -9.872980   -2.506880    0.012935
 C         -9.770878   -1.019514    0.148758
 H         -8.741065    1.306950    0.322889
 H         -7.393276   -4.832885   -0.321280
 H        -11.996365   -2.900300    0.073772
 C          7.908033    0.611002   -0.216616
 C          8.324326   -0.694692   -0.112432
 C          7.569677   -1.946901    0.040334
 O          6.354367   -2.111701    0.111185
 C          8.587173   -3.046517    0.097410
 C          8.389184   -4.412109    0.235610
 C          9.516284   -5.240380    0.261885
 C         10.812808   -4.696204    0.150605
 C         10.998486   -3.316516    0.011585
 C          9.872978   -2.506882   -0.012970
 C          9.770875   -1.019520   -0.148828
 H          8.741063    1.306946   -0.322944
 H          7.393276   -4.832883    0.321285
 H         11.996363   -2.900302   -0.073798
 N          1.646289    1.807083    0.021564
 N         -1.646287    1.807083   -0.021544
 N         -1.246754    6.536484    0.206360
 N          1.246754    6.536484   -0.206338
 C         -1.465317    0.451899   -0.542849
 H         -2.340304    0.191162   -1.141941
 H         -0.593996    0.422723   -1.196665
 H         -1.354890   -0.284126    0.257838
 C          1.465324    0.451905    0.542889
 H          1.354899   -0.284131   -0.257789
 H          2.340310    0.191180    1.141985
 H          0.594002    0.422736    1.196704
 C          7.618979    3.619197   -0.501006
 H          8.319765    3.561808    0.338792
 H          8.185757    3.429800   -1.419328
 H          7.242973    4.644536   -0.548907
 C         -7.618980    3.619199    0.500980
 H         -8.319887    3.561655   -0.338705
 H         -8.185620    3.429940    1.419417
 H         -7.242991    4.644555    0.548656
 S         -0.000001    7.614238    0.000011
 O         10.709216   -0.241129   -0.265747
 O        -10.709218   -0.241125    0.265691
Cl         12.223158   -5.724453    0.182700
Cl          9.277465   -6.961076    0.435393
Cl         -9.277464   -6.961081   -0.435351
Cl        -12.223158   -5.724455   -0.182676
        77
T1: Total Energy = -5962.90838294
 C         -6.631775    1.240919    0.192764
 C         -6.461870    2.656825    0.304062
 C         -5.119827    3.005501    0.266651
 C         -4.220468    1.916839    0.131739
 C         -2.895220    2.344545    0.110722
 C         -2.763829    3.757812    0.218794
 C         -1.418403    4.069403    0.134200
 C         -0.716235    5.321456    0.092358
 C          0.716243    5.321458   -0.092244
 S         -5.069612    0.391482    0.053229
 S         -4.299522    4.582873    0.365825
 C          6.631775    1.240913   -0.192844
 C          6.461872    2.656824   -0.304083
 C          5.119831    3.005502   -0.266640
 C          4.220470    1.916837   -0.131765
 C          2.895223    2.344544   -0.110723
 C          2.763834    3.757816   -0.218740
 C          1.418408    4.069406   -0.134133
 C          0.700206    2.812872   -0.013026
 C         -0.700202    2.812873    0.013048
 S          5.069610    0.391474   -0.053331
 S          4.299528    4.582879   -0.365747
 C         -7.896101    0.625193    0.195591
 C         -8.316822   -0.691831    0.103366
 C         -7.568995   -1.945671   -0.030083
 O         -6.351606   -2.118470   -0.091250
 C         -8.588882   -3.043744   -0.081955
 C         -8.395570   -4.410586   -0.204077
 C         -9.527247   -5.235319   -0.228793
 C        -10.820646   -4.685337   -0.131853
 C        -11.001633   -3.301919   -0.008849
 C         -9.873454   -2.497583    0.014177
 C         -9.761824   -1.009406    0.134035
 H         -8.726968    1.324014    0.288303
 H         -7.401057   -4.836636   -0.278830
 H        -11.998447   -2.881100    0.065500
 C          7.896099    0.625184   -0.195711
 C          8.316816   -0.691847   -0.103555
 C          7.568984   -1.945692    0.029821
 O          6.351597   -2.118483    0.091053
 C          8.588874   -3.043756    0.081817
 C          8.395564   -4.410590    0.204030
 C          9.527243   -5.235316    0.228851
 C         10.820644   -4.685335    0.131928
 C         11.001630   -3.301925    0.008835
 C          9.873448   -2.497596   -0.014299
 C          9.761815   -1.009429   -0.134281
 H          8.726967    1.324005   -0.288404
 H          7.401049   -4.836639    0.278772
 H         11.998444   -2.881106   -0.065502
 N          1.645312    1.776935    0.027949
 N         -1.645310    1.776939   -0.027968
 N         -1.253132    6.530405    0.163363
 N          1.253142    6.530409   -0.163206
 C         -1.466738    0.423217   -0.554936
 H         -2.346067    0.161744   -1.147399
 H         -0.600115    0.397705   -1.215685
 H         -1.347531   -0.313954    0.243358
 C          1.466739    0.423193    0.554866
 H          1.347531   -0.313947   -0.243455
 H          2.346069    0.161698    1.147318
 H          0.600117    0.397657    1.215614
 C          7.599770    3.629854   -0.443219
 H          8.285196    3.569944    0.409891
 H          8.184839    3.435404   -1.349518
 H          7.230209    4.657333   -0.500390
 C         -7.599767    3.629852    0.443227
 H         -8.285188    3.569975   -0.409890
 H         -8.184841    3.435370    1.349515
 H         -7.230204    4.657328    0.500437
 S          0.000005    7.613851    0.000097
 O         10.697541   -0.222903   -0.236678
 O        -10.697545   -0.222889    0.236547
Cl         12.236578   -5.707327    0.162010
Cl          9.292960   -6.959318    0.382753
Cl         -9.292963   -6.959331   -0.382583
Cl        -12.236577   -5.707338   -0.161802
        77
S1: Total Energy = -5962.88940719
 C         -6.634002    1.244670    0.202696
 C         -6.469847    2.651821    0.316910
 C         -5.120590    3.006039    0.278383
 C         -4.226835    1.921083    0.139587
 C         -2.894671    2.354033    0.118842
 C         -2.767277    3.760519    0.231909
 C         -1.416595    4.073824    0.144663
 C         -0.715501    5.324416    0.098621
 C          0.715497    5.324416   -0.098645
 S         -5.070764    0.397533    0.058577
 S         -4.303929    4.582264    0.382285
 C          6.633999    1.244670   -0.202691
 C          6.469843    2.651819   -0.316921
 C          5.120587    3.006038   -0.278390
 C          4.226832    1.921083   -0.139577
 C          2.894668    2.354033   -0.118841
 C          2.767273    3.760518   -0.231922
 C          1.416592    4.073823   -0.144677
 C          0.703292    2.820332   -0.018119
 C         -0.703296    2.820332    0.018119
 S          5.070763    0.397535   -0.058544
 S          4.303926    4.582263   -0.382295
 C         -7.902056    0.621230    0.204548
 C         -8.317930   -0.692300    0.108883
 C         -7.565921   -1.945038   -0.028789
 O         -6.347361   -2.113252   -0.090262
 C         -8.581798   -3.043777   -0.084503
 C         -8.384603   -4.409781   -0.211694
 C         -9.514765   -5.238075   -0.239324
 C        -10.809339   -4.692491   -0.140346
 C        -10.994849   -3.309052   -0.012123
 C         -9.869212   -2.501342    0.013803
 C         -9.762977   -1.014713    0.138608
 H         -8.734067    1.318717    0.299919
 H         -7.388955   -4.832737   -0.288108
 H        -11.992945   -2.891672    0.063770
 C          7.902054    0.621232   -0.204525
 C          8.317930   -0.692297   -0.108853
 C          7.565922   -1.945038    0.028801
 O          6.347361   -2.113256    0.090242
 C          8.581800   -3.043776    0.084508
 C          8.384606   -4.409783    0.211666
 C          9.514770   -5.238075    0.239297
 C         10.809344   -4.692487    0.140350
 C         10.994853   -3.309045    0.012158
 C          9.869215   -2.501337   -0.013771
 C          9.762978   -1.014706   -0.138550
 H          8.734065    1.318720   -0.299890
 H          7.388958   -4.832743    0.288057
 H         11.992950   -2.891661   -0.063712
 N          1.645886    1.786250    0.025122
 N         -1.645888    1.786248   -0.025108
 N         -1.251897    6.534464    0.174144
 N          1.251892    6.534463   -0.174185
 C         -1.469197    0.428082   -0.541735
 H         -2.352632    0.161700   -1.125449
 H         -0.607607    0.398275   -1.208634
 H         -1.344420   -0.301803    0.262169
 C          1.469198    0.428094    0.541776
 H          1.344409   -0.301804   -0.262114
 H          2.352641    0.161720    1.125484
 H          0.607617    0.398301    1.208687
 C          7.605100    3.627901   -0.461131
 H          8.298981    3.564233    0.384597
 H          8.181123    3.440444   -1.374621
 H          7.233380    4.655116   -0.508075
 C         -7.605104    3.627905    0.461108
 H         -8.299049    3.564146   -0.384559
 H         -8.181053    3.440531    1.374662
 H         -7.233390    4.655129    0.507922
 S         -0.000003    7.616547   -0.000024
 O         10.701070   -0.230638   -0.243684
 O        -10.701069   -0.230649    0.243769
Cl         12.222386   -5.718104    0.174029
Cl          9.275002   -6.960698    0.399245
Cl         -9.274996   -6.960694   -0.399311
Cl        -12.222379   -5.718111   -0.174024
