        57
S0: Total Energy = -3220.38267591
 C         -3.199347    0.261094    0.000567
 C         -2.567724    1.506864   -0.000154
 C         -1.169461    1.413333   -0.000044
 C         -0.713760    0.094626    0.000768
 H         -3.133815    2.428352   -0.000706
 C         -0.000000    2.395745   -0.000776
 C          1.169460    1.413332   -0.000108
 C          2.567723    1.506865   -0.000302
 C          3.199347    0.261095    0.000399
 C          0.713760    0.094625    0.000730
 H          3.133814    2.428353   -0.000919
 C          4.608854   -0.046094    0.000323
 C          5.632432    0.978660    0.000148
 C          5.088269   -1.360034    0.000466
 N          5.428402    2.299093    0.000147
 C          7.039753    0.622705    0.000095
 C          6.450014   -1.702115    0.000386
 H          4.378875   -2.181558    0.000612
 S          6.903539    3.017888   -0.000019
 N          7.854666    1.679509   -0.000056
 C          7.473944   -0.753332    0.000168
 H          6.693637   -2.757119    0.000506
 C          8.886608   -1.011330    0.000123
 H          9.500891   -0.115245    0.000506
 C          9.588145   -2.193275   -0.000388
 C         11.019393   -2.157494   -0.000223
 C          9.010702   -3.500196   -0.001155
 N         12.183499   -2.132787   -0.000089
 N          8.557346   -4.573150   -0.001802
 C         -4.608854   -0.046095    0.000455
 C         -5.632430    0.978659    0.000343
 C         -5.088269   -1.360035    0.000269
 N         -5.428399    2.299092    0.000449
 C         -7.039752    0.622704    0.000074
 C         -6.450014   -1.702115    0.000006
 H         -4.378875   -2.181559    0.000225
 S         -6.903535    3.017889    0.000259
 N         -7.854663    1.679510    0.000086
 C         -7.473944   -0.753332   -0.000112
 H         -6.693637   -2.757119   -0.000153
 C         -8.886608   -1.011329   -0.000516
 H         -9.500889   -0.115242   -0.000888
 C         -9.588147   -2.193273   -0.000499
 C        -11.019395   -2.157488   -0.001065
 C         -9.010708   -3.500195    0.000062
 N        -12.183501   -2.132780   -0.001532
 N         -8.557358   -4.573152    0.000517
 C          0.000033    3.280254    1.266974
 H         -0.000132    2.671238    2.176126
 H          0.886552    3.923383    1.281555
 H         -0.886298    3.923646    1.281402
 C         -0.000030    3.278086   -1.270065
 H          0.886350    3.921377   -1.285637
 H          0.000049    2.667497   -2.178161
 H         -0.886508    3.921239   -1.285702
 S          1.998318   -1.054140    0.001273
 S         -1.998317   -1.054141    0.001330
        57
T1: Total Energy = -3220.34906473
 C         -3.189940   -0.244200   -0.000215
 C         -2.541116   -1.510711    0.000167
 C         -1.168525   -1.415711    0.000017
 C         -0.694217   -0.069530   -0.000522
 H         -3.114268   -2.427653    0.000559
 C          0.000000   -2.398788    0.000393
 C          1.168525   -1.415711   -0.000103
 C          2.541116   -1.510711   -0.000065
 C          3.189940   -0.244200   -0.000506
 C          0.694217   -0.069530   -0.000608
 H          3.114268   -2.427653    0.000301
 C          4.576209    0.041494   -0.000462
 C          5.597462   -0.991671   -0.000111
 C          5.067599    1.373684   -0.000685
 N          5.391626   -2.307099    0.000092
 C          7.005917   -0.634607    0.000036
 C          6.413693    1.709585   -0.000524
 H          4.355161    2.192766   -0.000956
 S          6.874168   -3.035212    0.000446
 N          7.821056   -1.686836    0.000345
 C          7.444689    0.745000   -0.000139
 H          6.666716    2.761913   -0.000690
 C          8.846154    0.999337    0.000093
 H          9.463822    0.105875    0.000319
 C          9.550988    2.190227    0.000101
 C         10.979651    2.151707    0.000375
 C          8.979424    3.496978   -0.000121
 N         12.144486    2.122749    0.000603
 N          8.533913    4.574163   -0.000290
 C         -4.576208    0.041494   -0.000125
 C         -5.597462   -0.991671    0.000194
 C         -5.067598    1.373685   -0.000342
 N         -5.391626   -2.307098    0.000373
 C         -7.005917   -0.634607    0.000281
 C         -6.413693    1.709585   -0.000243
 H         -4.355160    2.192766   -0.000585
 S         -6.874168   -3.035212    0.000795
 N         -7.821056   -1.686836    0.000526
 C         -7.444688    0.745001    0.000070
 H         -6.666716    2.761913   -0.000421
 C         -8.846153    0.999337    0.000188
 H         -9.463822    0.105875    0.000401
 C         -9.550989    2.190226    0.000084
 C        -10.979652    2.151706    0.000254
 C         -8.979425    3.496978   -0.000167
 N        -12.144487    2.122748    0.000393
 N         -8.533916    4.574163   -0.000365
 C         -0.000066   -3.281598   -1.268353
 H         -0.000102   -2.673046   -2.177658
 H          0.886756   -3.923854   -1.281411
 H         -0.886901   -3.923837   -1.281329
 C          0.000066   -3.280324    1.270035
 H          0.886902   -3.922544    1.283658
 H          0.000103   -2.670854    2.178725
 H         -0.886757   -3.922560    1.283741
 S          1.987102    1.085039   -0.001070
 S         -1.987102    1.085040   -0.000819
        57
S1: Total Energy = -3220.32429395
 C         -3.189905   -0.257311   -0.001773
 C         -2.554405   -1.513974   -0.000822
 C         -1.167937   -1.420620   -0.001257
 C         -0.702809   -0.086042   -0.002636
 H         -3.127313   -2.431057    0.000264
 C         -0.000000   -2.403572   -0.000262
 C          1.167937   -1.420620   -0.001272
 C          2.554405   -1.513974   -0.000857
 C          3.189904   -0.257311   -0.001805
 C          0.702809   -0.086042   -0.002645
 H          3.127313   -2.431057    0.000219
 C          4.592861    0.042393   -0.001277
 C          5.610126   -0.986136   -0.000119
 C          5.070789    1.367813   -0.001684
 N          5.402800   -2.304660    0.000323
 C          7.019110   -0.628314    0.000656
 C          6.423457    1.709898   -0.000903
 H          4.356795    2.185715   -0.002557
 S          6.885954   -3.029017    0.001608
 N          7.835581   -1.682374    0.001660
 C          7.450963    0.749859    0.000343
 H          6.672234    2.763249   -0.001246
 C          8.857296    1.008153    0.001297
 H          9.475115    0.114707    0.002031
 C          9.559030    2.198174    0.001493
 C         10.987966    2.163685    0.002577
 C          8.984741    3.503975    0.000758
 N         12.153118    2.138757    0.003457
 N          8.536489    4.580273    0.000189
 C         -4.592861    0.042393   -0.001232
 C         -5.610126   -0.986136    0.000036
 C         -5.070789    1.367813   -0.001704
 N         -5.402800   -2.304660    0.000567
 C         -7.019110   -0.628314    0.000888
 C         -6.423458    1.709898   -0.000868
 H         -4.356795    2.185715   -0.002653
 S         -6.885954   -3.029017    0.001897
 N         -7.835581   -1.682374    0.002027
 C         -7.450963    0.749859    0.000523
 H         -6.672234    2.763249   -0.001231
 C         -8.857296    1.008153    0.001646
 H         -9.475115    0.114707    0.002778
 C         -9.559030    2.198175    0.001563
 C        -10.987965    2.163687    0.003010
 C         -8.984740    3.503974    0.000148
 N        -12.153117    2.138759    0.004188
 N         -8.536486    4.580271   -0.000991
 C         -0.000009   -3.287239   -1.268742
 H         -0.000014   -2.679048   -2.178260
 H          0.886635   -3.929785   -1.281407
 H         -0.886655   -3.929782   -1.281395
 C          0.000009   -3.284400    1.270199
 H          0.886654   -3.926908    1.284294
 H          0.000016   -2.674172    2.178351
 H         -0.886636   -3.926907    1.284307
 S          1.990139    1.066081   -0.003484
 S         -1.990139    1.066081   -0.003464
