        75
S0: Total Energy = -4292.54105487
 C         -4.920444   -0.164089    0.318985
 C         -5.484204    0.949386    1.039359
 N         -4.800454    1.863414    1.739686
 S         -5.901885    2.896413    2.381226
 N         -7.284213    2.221885    1.804272
 C         -6.920900    1.158115    1.083318
 C         -7.834205    0.267061    0.410446
 C         -7.240096   -0.788684   -0.269119
 C         -5.839932   -0.990221   -0.311122
 H         -7.851063   -1.495348   -0.819141
 H         -5.474105   -1.827258   -0.896517
 C          4.920374   -0.164047   -0.318331
 C          5.484000    0.949401   -1.038866
 N          4.800125    1.863419   -1.739083
 S          5.901424    2.896283   -2.381006
 N          7.283856    2.221794   -1.804304
 C          6.920699    1.158048   -1.083243
 C          7.834170    0.266974   -0.410628
 C          7.240201   -0.788758    0.269082
 C          5.840047   -0.990211    0.311509
 H          7.851268   -1.495554    0.818815
 H          5.474390   -1.827219    0.897040
 C         -9.248537    0.546645    0.495275
 H         -9.507713    1.458726    1.028235
 C        -10.322740   -0.139590    0.029907
 C        -11.690251    0.382132    0.260411
 O        -11.987559    1.412336    0.838983
 N        -12.648085   -0.496224   -0.293539
 C        -12.181129   -1.618521   -0.915983
 S        -13.080825   -2.800626   -1.641597
 S        -10.405427   -1.665164   -0.854844
 C          9.248497    0.546436   -0.495969
 H          9.507560    1.458231   -1.029476
 C         10.322828   -0.139567   -0.030500
 C         11.690295    0.381883   -0.261861
 O         11.987486    1.411730   -0.841119
 N         12.648267   -0.496284    0.292181
 C         12.181447   -1.618187    0.915434
 S         13.081308   -2.800056    1.641232
 S         10.405716   -1.664601    0.855158
 C        -14.075402   -0.195414   -0.191778
 H        -14.507599   -0.107527   -1.191109
 H        -14.165371    0.746834    0.347241
 H        -14.585116   -0.995986    0.348952
 C         14.075581   -0.195735    0.189583
 H         14.584860   -0.996432   -0.351377
 H         14.165413    0.746443   -0.349583
 H         14.508350   -0.107839    1.188662
 C         -3.469638   -0.429262    0.251749
 C         -2.528416    0.621282    0.190832
 C         -1.176618    0.330943    0.089374
 C         -0.729526   -1.006001    0.053852
 C         -1.647963   -2.057384    0.122781
 C         -3.004370   -1.761948    0.219007
 C          0.729495   -1.005991   -0.052410
 C          1.176542    0.330948   -0.088414
 C         -0.000054    1.303035    0.000305
 C          2.528315    0.621300   -0.190088
 H          2.871824    1.648928   -0.214696
 C          3.469590   -0.429225   -0.250724
 C          3.004343   -1.761927   -0.217434
 C          1.647967   -2.057368   -0.120996
 H         -2.871970    1.648910    0.215034
 H         -1.317683   -3.092474    0.111729
 H         -3.717524   -2.576223    0.302619
 H          3.717491   -2.576230   -0.300783
 H          1.317728   -3.092466   -0.109538
 C         -0.094262    2.189729   -1.262274
 H         -0.977407    2.836601   -1.212501
 H          0.789765    2.831207   -1.349044
 H         -0.165182    1.580632   -2.169179
 C          0.094109    2.190297    1.262455
 H         -0.789948    2.831774    1.348918
 H          0.165050    1.581629    2.169648
 H          0.977223    2.837187    1.212387
        75
T1: Total Energy = -4292.49049604
 C         -4.908643   -0.079556    0.209061
 C         -5.476637    1.132778    0.761488
 N         -4.801013    2.160823    1.275474
 S         -5.913919    3.279499    1.803834
 N         -7.297285    2.454787    1.388228
 C         -6.921252    1.313369    0.834994
 C         -7.852278    0.303713    0.345296
 C         -7.231687   -0.868339   -0.214961
 C         -5.872165   -1.035861   -0.264078
 H         -7.850959   -1.652111   -0.633797
 H         -5.505189   -1.938764   -0.736936
 C          4.918662   -0.139516   -0.342404
 C          5.504616    1.052069   -0.903599
 N          4.841468    2.061631   -1.481247
 S          5.964015    3.152676   -1.973399
 N          7.330137    2.385296   -1.480752
 C          6.944601    1.241551   -0.909599
 C          7.839285    0.256391   -0.352505
 C          7.223985   -0.872043    0.176102
 C          5.821996   -1.056694    0.178522
 H          7.819508   -1.656715    0.628495
 H          5.440202   -1.958674    0.645024
 C         -9.222713    0.545679    0.450273
 H         -9.505779    1.498913    0.889782
 C        -10.328350   -0.232340    0.086707
 C        -11.682633    0.284950    0.306946
 O        -11.983777    1.368427    0.791074
 N        -12.646771   -0.660740   -0.128036
 C        -12.180747   -1.827108   -0.647222
 S        -13.062004   -3.104321   -1.230264
 S        -10.401729   -1.823181   -0.625778
 C          9.257397    0.523969   -0.389512
 H          9.535283    1.482260   -0.822437
 C         10.316515   -0.219299    0.020563
 C         11.693464    0.305374   -0.139235
 O         12.010256    1.381549   -0.614320
 N         12.632733   -0.632105    0.344559
 C         12.144019   -1.801542    0.852947
 S         13.018239   -3.056340    1.480141
 S         10.368734   -1.821310    0.758723
 C        -14.074340   -0.368842   -0.011705
 H        -14.538671   -0.389762   -1.000277
 H        -14.161305    0.622959    0.430310
 H        -14.554898   -1.115166    0.625051
 C         14.064762   -0.340479    0.292433
 H         14.573836   -1.091684   -0.315597
 H         14.173216    0.647938   -0.152196
 H         14.482352   -0.354404    1.301623
 C         -3.489414   -0.348124    0.110457
 C         -2.513168    0.690077    0.179343
 C         -1.172028    0.394159    0.058370
 C         -0.733246   -0.940491   -0.122347
 C         -1.671522   -1.983020   -0.179328
 C         -3.017761   -1.685558   -0.070263
 C          0.715598   -0.947462   -0.214328
 C          1.181768    0.382175   -0.097676
 C          0.017272    1.354899    0.085245
 C          2.536746    0.661972   -0.153084
 H          2.893935    1.680825   -0.062187
 C          3.466063   -0.389655   -0.318617
 C          2.982252   -1.713944   -0.438231
 C          1.624208   -1.999856   -0.390440
 H         -2.842445    1.710986    0.319155
 H         -1.353430   -3.014954   -0.298227
 H         -3.723892   -2.507287   -0.080340
 H          3.685800   -2.523465   -0.605068
 H          1.280343   -3.024634   -0.498668
 C         -0.052340    2.371836   -1.076868
 H         -0.926070    3.023143   -0.964497
 H          0.842319    3.004084   -1.087848
 H         -0.124227    1.863795   -2.043900
 C          0.108739    2.100788    1.435812
 H         -0.769265    2.739549    1.581297
 H          0.163899    1.398254    2.273609
 H          0.999223    2.738765    1.462586
        75
S1: Total Energy = -4292.46865244
 C         -4.905873   -0.108733    0.276959
 C         -5.482462    1.112517    0.789911
 N         -4.814560    2.154583    1.296041
 S         -5.937213    3.269200    1.771627
 N         -7.310072    2.454393    1.354170
 C         -6.926993    1.290708    0.829333
 C         -7.832843    0.275090    0.342927
 C         -7.219412   -0.886833   -0.157142
 C         -5.834095   -1.063721   -0.178910
 H         -7.825271   -1.689740   -0.559944
 H         -5.463421   -1.983146   -0.617410
 C          4.905873   -0.108732   -0.276934
 C          5.482457    1.112513   -0.789903
 N          4.814551    2.154574   -1.296039
 S          5.937200    3.269186   -1.771644
 N          7.310062    2.454384   -1.354190
 C          6.926988    1.290705   -0.829337
 C          7.832842    0.275092   -0.342926
 C          7.219415   -0.886825    0.157162
 C          5.834098   -1.063713    0.178941
 H          7.825277   -1.689726    0.559970
 H          5.463428   -1.983133    0.617455
 C         -9.236606    0.530994    0.406470
 H         -9.515137    1.497829    0.819046
 C        -10.311969   -0.233301    0.038365
 C        -11.680150    0.286210    0.217785
 O        -11.997513    1.373114    0.676965
 N        -12.627796   -0.668531   -0.225720
 C        -12.146571   -1.844392   -0.718076
 S        -13.024927   -3.124102   -1.300365
 S        -10.371374   -1.846614   -0.660334
 C          9.236604    0.530995   -0.406484
 H          9.515132    1.497827   -0.819071
 C         10.311970   -0.233297   -0.038382
 C         11.680150    0.286211   -0.217820
 O         11.997510    1.373110   -0.677012
 N         12.627799   -0.668528    0.225685
 C         12.146577   -1.844386    0.718052
 S         13.024938   -3.124095    1.300335
 S         10.371380   -1.846606    0.660327
 C        -14.058652   -0.380267   -0.147653
 H        -14.499409   -0.416537   -1.146526
 H        -14.159529    0.617109    0.278548
 H        -14.552219   -1.119706    0.487201
 C         14.058654   -0.380267    0.147599
 H         14.552204   -1.119669   -0.487313
 H         14.159527    0.617133   -0.278545
 H         14.499435   -0.416602    1.146460
 C         -3.471942   -0.364084    0.214827
 C         -2.519254    0.692496    0.169991
 C         -1.174920    0.407681    0.080652
 C         -0.714383   -0.939811    0.046698
 C         -1.642210   -2.001487    0.107361
 C         -2.987256   -1.709403    0.184412
 C          0.714385   -0.939811   -0.046645
 C          1.174920    0.407682   -0.080613
 C         -0.000000    1.380513    0.000016
 C          2.519253    0.692497   -0.169960
 H          2.867055    1.716554   -0.199349
 C          3.471942   -0.364083   -0.214790
 C          2.987257   -1.709402   -0.184360
 C          1.642213   -2.001487   -0.107301
 H         -2.867056    1.716553    0.199368
 H         -1.307733   -3.034526    0.105419
 H         -3.691781   -2.528912    0.267022
 H          3.691783   -2.528911   -0.266964
 H          1.307736   -3.034526   -0.105348
 C         -0.085236    2.266151   -1.264211
 H         -0.968021    2.912950   -1.218073
 H          0.800172    2.905970   -1.343096
 H         -0.150984    1.657878   -2.171903
 C          0.085235    2.266158    1.264239
 H         -0.800173    2.905978    1.343119
 H          0.150983    1.657891    2.171934
 H          0.968020    2.912957    1.218097
