       103
S0: Total Energy = -4555.02988458
 C         -4.907378   -0.697186    0.479913
 C         -5.448490    0.413003    1.221712
 N         -4.742816    1.322120    1.905869
 S         -5.821744    2.354519    2.582710
 N         -7.222421    1.684679    2.044713
 C         -6.882194    0.623574    1.308998
 C         -7.815202   -0.264596    0.659884
 C         -7.242486   -1.318620   -0.041518
 C         -5.845028   -1.521260   -0.126417
 H         -7.868001   -2.024061   -0.576716
 H         -5.497552   -2.355740   -0.726244
 C          4.907405   -0.697177   -0.479989
 C          5.448531    0.413047   -1.221725
 N          4.742872    1.322192   -1.905861
 S          5.821814    2.354629   -2.582623
 N          7.222479    1.684766   -2.044626
 C          6.882238    0.623629   -1.308964
 C          7.815234   -0.264566   -0.659869
 C          7.242504   -1.318627    0.041467
 C          5.845045   -1.521275    0.126324
 H          7.868008   -2.024091    0.576648
 H          5.497560   -2.355782    0.726108
 C         -9.224963    0.015331    0.790580
 H         -9.466348    0.923193    1.339094
 C        -10.317651   -0.661953    0.356598
 C        -11.672959   -0.146994    0.635341
 O        -11.956339    0.875321    1.230932
 N        -12.653636   -1.023892    0.105463
 S        -10.410884   -2.179831   -0.539555
 C          9.224996    0.015380   -0.790503
 H          9.466390    0.923279   -1.338952
 C         10.317675   -0.661920   -0.356528
 C         11.672987   -0.146918   -0.635170
 O         11.956376    0.875451   -1.230663
 N         12.653654   -1.023836   -0.105307
 S         10.410892   -2.179865    0.539515
 C        -14.071903   -0.690218    0.279981
 H        -14.555985   -0.566307   -0.690065
 H        -14.098427    0.249862    0.829662
 H        -14.578501   -1.468755    0.852611
 C         14.071923   -0.690071   -0.279641
 H         14.578597   -1.468452   -0.852416
 H         14.098455    0.250138   -0.829101
 H         14.555921   -0.566371    0.690473
 C         -3.459366   -0.960913    0.367004
 C         -2.521964    0.090217    0.279237
 C         -1.176219   -0.204853    0.130973
 C         -0.727701   -1.539198    0.077739
 C         -1.643807   -2.590485    0.174753
 C         -2.995892   -2.294275    0.315252
 C          0.727721   -1.539198   -0.077875
 C          1.176240   -0.204851   -0.131079
 C          0.000016    0.769424   -0.000044
 C          2.521987    0.090221   -0.279329
 H          2.856292    1.120097   -0.317678
 C          3.459391   -0.960908   -0.367111
 C          2.995913   -2.294270   -0.315395
 C          1.643828   -2.590482   -0.174910
 H         -2.856269    1.120093    0.317614
 H         -1.314064   -3.625390    0.150072
 H         -3.706350   -3.108499    0.418857
 H          3.706369   -3.108494   -0.419016
 H          1.314084   -3.625388   -0.150255
 C          0.335524    3.853898    2.995047
 C          0.385216    2.524651    3.443655
 C          0.282246    1.469754    2.527225
 C          0.131654    1.743253    1.176221
 C          0.081968    3.079922    0.730411
 C          0.182775    4.136478    1.628114
 H          0.501723    2.300433    4.497258
 H          0.320527    0.445210    2.888088
 H          0.146803    5.173325    1.307629
 C         -0.131648    1.743283   -1.176273
 C         -0.282212    1.469808   -2.527295
 C         -0.385231    2.524718   -3.443688
 C         -0.335625    3.853967   -2.995037
 C         -0.182904    4.136515   -1.628105
 C         -0.082040    3.079931   -0.730430
 H         -0.320425    0.445265   -2.888166
 H         -0.501705    2.300533   -4.497301
 H         -0.146994    5.173356   -1.307592
 O         -0.427054    4.944681   -3.811213
 O          0.426902    4.944605    3.811239
 C         -0.581705    4.733668   -5.209726
 H         -0.630974    5.727639   -5.657189
 H          0.271829    4.187579   -5.630625
 H         -1.506923    4.188125   -5.434127
 C          0.581473    4.733577    5.209757
 H         -0.272042    4.187401    5.630585
 H          1.506724    4.188111    5.434213
 H          0.630624    5.727540    5.657251
 C        -12.179757   -2.127028   -0.534555
 C        -12.895122   -3.147409   -1.145041
 C         12.179765   -2.127037    0.534589
 C         12.895121   -3.147467    1.145004
 C        -14.314260   -3.236715   -1.219825
 N        -15.468461   -3.367388   -1.314711
 C        -12.173246   -4.212758   -1.759761
 N        -11.575811   -5.079490   -2.260025
 C         12.173238   -4.212848    1.759658
 N         11.575794   -5.079607    2.259866
 C         14.314259   -3.236804    1.219756
 N         15.468461   -3.367506    1.314595
       103
T1: Total Energy = -4554.97855879
 C         -4.891379   -0.681028    0.582010
 C         -5.460861    0.506744    1.166916
 N         -4.780630    1.511792    1.731612
 S         -5.886689    2.600441    2.261555
 N         -7.267624    1.836482    1.804936
 C         -6.899206    0.696205    1.216208
 C         -7.808894   -0.286613    0.679719
 C         -7.209171   -1.413783    0.129201
 C         -5.808511   -1.598488    0.084998
 H         -7.815518   -2.200001   -0.306006
 H         -5.440546   -2.498688   -0.395587
 C          4.913682   -0.594379   -0.266432
 C          5.464902    0.624788   -0.821803
 N          4.774595    1.653607   -1.312310
 S          5.869520    2.781647   -1.853722
 N          7.264766    1.960968   -1.475989
 C          6.906258    0.812555   -0.924906
 C          7.852371   -0.196366   -0.465241
 C          7.250292   -1.376832    0.093882
 C          5.892149   -1.551316    0.172279
 H          7.879349   -2.164401    0.490704
 H          5.542426   -2.462139    0.642647
 C         -9.224022   -0.018540    0.761178
 H         -9.488153    0.928840    1.225867
 C        -10.299460   -0.743364    0.361046
 C        -11.666160   -0.225440    0.573100
 O        -11.972253    0.832019    1.090851
 N        -12.625579   -1.146704    0.081906
 S        -10.357266   -2.320746   -0.427055
 C          9.220219    0.058268   -0.595534
 H          9.486176    1.020033   -1.027149
 C         10.339557   -0.710702   -0.267734
 C         11.682677   -0.185120   -0.500514
 O         11.976490    0.904872   -0.969611
 N         12.664520   -1.135739   -0.095732
 S         10.417656   -2.316886    0.416882
 C        -14.050872   -0.819824    0.205246
 H        -14.515522   -0.763719   -0.780338
 H        -14.099458    0.152854    0.693205
 H        -14.560489   -1.566867    0.815955
 C         14.083275   -0.794254   -0.241511
 H         14.577806   -1.497537   -0.913435
 H         14.112014    0.207994   -0.667610
 H         14.578022   -0.798628    0.731206
 C         -3.439977   -0.926323    0.511080
 C         -2.521200    0.128638    0.318626
 C         -1.169676   -0.152175    0.217961
 C         -0.692929   -1.478673    0.318063
 C         -1.593487   -2.534191    0.520661
 C         -2.949084   -2.251089    0.610966
 C          0.751484   -1.467593    0.181542
 C          1.184899   -0.133417   -0.016169
 C         -0.012003    0.824730   -0.009133
 C          2.518791    0.170093   -0.176891
 H          2.833121    1.193597   -0.329800
 C          3.498988   -0.865406   -0.130673
 C          3.035398   -2.205203    0.067330
 C          1.694677   -2.507232    0.214965
 H         -2.876099    1.148950    0.240703
 H         -1.243384   -3.558053    0.615155
 H         -3.645412   -3.062585    0.796680
 H          3.743620   -3.024909    0.061634
 H          1.383091   -3.539384    0.347144
 C          0.218748    4.235201    2.617908
 C          0.292867    2.966900    3.215658
 C          0.223728    1.812713    2.424704
 C          0.082617    1.927895    1.050066
 C          0.008007    3.203559    0.454001
 C          0.074811    4.357063    1.226330
 H          0.403395    2.866637    4.288795
 H          0.282025    0.837113    2.900228
 H          0.020708    5.349583    0.789403
 C         -0.150405    1.654094   -1.290181
 C         -0.277515    1.224352   -2.602489
 C         -0.392185    2.165151   -3.634111
 C         -0.378842    3.537916   -3.339373
 C         -0.251026    3.978059   -2.011915
 C         -0.137390    3.033637   -0.998670
 H         -0.288306    0.164775   -2.844553
 H         -0.489461    1.819681   -4.656414
 H         -0.242835    5.045221   -1.811651
 O         -0.485009    4.525574   -4.274797
 O          0.277188    5.412882    3.304789
 C         -0.609470    4.154364   -5.642973
 H         -0.675662    5.090077   -6.200244
 H          0.265053    3.587864   -5.986382
 H         -1.516732    3.562592   -5.817591
 C          0.430212    5.367048    4.718824
 H         -0.413335    4.854384    5.197775
 H          1.366130    4.871454    5.005501
 H          0.455850    6.406629    5.049163
 C        -12.126384   -2.285296   -0.470794
 C        -12.816825   -3.351151   -1.029765
 C         12.185587   -2.300315    0.403593
 C         12.885243   -3.409469    0.873692
 C        -14.232582   -3.455859   -1.140710
 N        -15.382650   -3.600545   -1.261465
 C        -12.070122   -4.449454   -1.549556
 N        -11.451942   -5.342712   -1.971813
 C         12.148080   -4.527993    1.358364
 N         11.536417   -5.438757    1.753244
 C         14.301570   -3.532550    0.913514
 N         15.455353   -3.691055    0.970366
       103
S1: Total Energy = -4554.96334421
 C         -4.917904   -0.643716    0.415345
 C         -5.465918    0.551599    1.004888
 N         -4.769991    1.562171    1.540683
 S         -5.865688    2.664234    2.100379
 N         -7.261349    1.886318    1.683017
 C         -6.908797    0.744603    1.093302
 C         -7.838851   -0.238130    0.583698
 C         -7.248471   -1.375835    0.011262
 C         -5.862394   -1.561472   -0.062839
 H         -7.870181   -2.155925   -0.412904
 H         -5.511013   -2.462125   -0.554837
 C          4.917903   -0.643717   -0.415323
 C          5.465915    0.551591   -1.004881
 N          4.769985    1.562156   -1.540687
 S          5.865679    2.664215   -2.100394
 N          7.261342    1.886302   -1.683035
 C          6.908792    0.744594   -1.093304
 C          7.838849   -0.238133   -0.583694
 C          7.248473   -1.375831   -0.011242
 C          5.862396   -1.561467    0.062868
 H          7.870184   -2.155916    0.412929
 H          5.511016   -2.462116    0.554876
 C         -9.237222    0.027286    0.699385
 H         -9.492474    0.976000    1.166172
 C        -10.336998   -0.699660    0.329646
 C        -11.685175   -0.188707    0.567279
 O        -11.998881    0.873404    1.084459
 N        -12.658804   -1.122378    0.101626
 S        -10.408158   -2.285528   -0.446947
 C          9.237220    0.027282   -0.699393
 H          9.492469    0.975990   -1.166191
 C         10.336998   -0.699660   -0.329652
 C         11.685174   -0.188709   -0.567300
 O         11.998876    0.873394   -1.084496
 N         12.658806   -1.122377   -0.101647
 S         10.408164   -2.285520    0.446958
 C        -14.079022   -0.795609    0.254194
 H        -14.567782   -0.746658   -0.720437
 H        -14.115151    0.180723    0.736392
 H        -14.576932   -1.537799    0.880727
 C         14.079023   -0.795611   -0.254232
 H         14.576926   -1.537807   -0.880763
 H         14.115148    0.180717   -0.736438
 H         14.567792   -0.746652    0.720394
 C         -3.477119   -0.908534    0.313844
 C         -2.525990    0.134563    0.236619
 C         -1.182462   -0.171842    0.110412
 C         -0.721856   -1.510331    0.064836
 C         -1.652554   -2.554499    0.152264
 C         -2.999717   -2.246923    0.273818
 C          0.721856   -1.510331   -0.064796
 C          1.182461   -0.171842   -0.110388
 C         -0.000001    0.792984    0.000007
 C          2.525989    0.134563   -0.236599
 H          2.856530    1.164696   -0.274868
 C          3.477119   -0.908535   -0.313814
 C          2.999718   -2.246924   -0.273773
 C          1.652555   -2.554499   -0.152214
 H         -2.856531    1.164697    0.274875
 H         -1.331262   -3.591971    0.139204
 H         -3.707829   -3.062481    0.375577
 H          3.707830   -3.062482   -0.375524
 H          1.331264   -3.591971   -0.139142
 C          0.267675    3.876948    2.987022
 C          0.307270    2.524847    3.434165
 C          0.226614    1.475845    2.526733
 C          0.106043    1.761096    1.168880
 C          0.065522    3.116772    0.723514
 C          0.146304    4.171408    1.621875
 H          0.399265    2.306735    4.490617
 H          0.255973    0.450647    2.880509
 H          0.117986    5.208649    1.306900
 C         -0.106045    1.761083   -1.168876
 C         -0.226617    1.475818   -2.526726
 C         -0.307273    2.524810   -3.434169
 C         -0.267678    3.876916   -2.987041
 C         -0.146307    4.171391   -1.621897
 C         -0.065524    3.116764   -0.723524
 H         -0.255975    0.450616   -2.880490
 H         -0.399268    2.306686   -4.490619
 H         -0.117989    5.208635   -1.306933
 O         -0.340768    4.933987   -3.812623
 O          0.340765    4.934029    3.812592
 C         -0.466320    4.733712   -5.227032
 H         -0.501975    5.734158   -5.656662
 H          0.398427    4.192566   -5.623978
 H         -1.390029    4.196878   -5.465761
 C          0.466315    4.733770    5.227004
 H         -0.398432    4.192630    5.623956
 H          1.390024    4.196938    5.465739
 H          0.501971    5.734221    5.656622
 C        -12.172559   -2.261236   -0.452697
 C        -12.877387   -3.337966   -0.989955
 C         12.172564   -2.261229    0.452692
 C         12.877396   -3.337954    0.989954
 C        -14.293139   -3.446481   -1.064672
 N        -15.446661   -3.593993   -1.155325
 C        -12.142247   -4.436463   -1.519793
 N        -11.532616   -5.331983   -1.952109
 C         12.142259   -4.436445    1.519810
 N         11.532631   -5.331959    1.952142
 C         14.293149   -3.446471    1.064658
 N         15.446671   -3.593986    1.155303
