        96
S0: Total Energy = -4975.08124237
 C          5.557419   -0.692318    0.118338
 C          5.083154    0.615374    0.119310
 S          4.227324   -1.835637    0.128209
 C          3.683746    0.702674    0.127552
 H          5.745974    1.472497    0.113857
 C          3.040185   -0.535371    0.132683
 H          3.127834    1.634877    0.129324
 C          1.616046   -0.710555    0.137562
 C          0.643595    0.296398    0.138903
 N          0.935164   -1.925812    0.138727
 C          0.483171    1.733889    0.138033
 C         -0.643547   -0.296610    0.139194
 C         -0.483124   -1.734102    0.139208
 C          1.480027   -3.273771    0.139172
 N         -0.935116    1.925599    0.137695
 O          1.280137    2.671480    0.137792
 C         -1.615998    0.710341    0.137387
 O         -1.280091   -2.671691    0.139707
 H          0.622988   -3.949081    0.142338
 H          2.082685   -3.461251    1.032951
 H          2.078007   -3.463952   -0.757195
 C         -1.479974    3.273560    0.137203
 C         -3.040138    0.535150    0.132883
 H         -0.622931    3.948868    0.139667
 H         -2.078138    3.463038   -0.759189
 H         -2.082445    3.461747    1.030959
 C         -3.683697   -0.702899    0.128586
 S         -4.227279    1.835410    0.127935
 H         -3.127784   -1.635101    0.130799
 C         -5.083109   -0.615606    0.120550
 C         -5.557375    0.692084    0.118922
 H         -5.745927   -1.472734    0.115721
 C         -6.882546    1.133553    0.108891
 C         -8.037704    1.533518    0.097960
 C          6.882591   -1.133782    0.108329
 C          8.037765   -1.533704    0.097432
 C         -9.367147    1.964080    0.082030
 C         -9.846078    3.273417    0.109572
 S        -10.670711    0.797657    0.017628
 C        -11.264346    3.339046    0.078269
 C         -8.952859    4.479801    0.167165
 C        -11.873861    2.078781    0.026830
 H         -7.899714    4.189531    0.178429
 H         -9.150592    5.076350    1.066288
 H         -9.115725    5.135378   -0.697057
 C        -13.275233    1.824438   -0.014332
 H        -13.917597    2.701616    0.002294
 C        -13.976649    0.658238   -0.072580
 S        -13.372649   -1.000849   -0.121028
 C        -15.445340    0.675866   -0.106576
 C        -15.020797   -1.639746   -0.184817
 N        -15.952589   -0.647728   -0.169271
 O        -16.166810    1.658355   -0.086326
 C        -17.405064   -0.848386   -0.211766
 H        -17.692657   -1.361427   -1.130864
 H        -17.850082    0.145704   -0.187556
 H        -17.736431   -1.424362    0.653849
 C          9.367228   -1.964201    0.081561
 C          9.846235   -3.273514    0.109116
 S         10.670727   -0.797707    0.017242
 C         11.264502   -3.339062    0.077926
 C          8.953068   -4.479945    0.166575
 C         11.873952   -2.078755    0.026546
 H          7.899909   -4.189725    0.177767
 H          9.150755   -5.076538    1.065678
 H          9.116043   -5.135461   -0.697673
 C         13.275307   -1.824327   -0.014552
 H         13.917722   -2.701469    0.002006
 C         13.976655   -0.658078   -0.072653
 S         13.372548    1.000975   -0.120929
 C         15.445345   -0.675608   -0.106593
 C         15.020660    1.639989   -0.184560
 N         15.952513    0.648026   -0.169116
 O         16.166881   -1.658051   -0.086397
 C         17.404980    0.848785   -0.211378
 H         17.692678    1.361956   -1.130369
 H         17.850059   -0.145278   -0.187220
 H         17.736181    1.424679    0.654358
 C        -15.221016   -3.012962   -0.241371
 C         15.220785    3.013225   -0.240913
 C        -16.485793   -3.664176   -0.293664
 N        -17.490033   -4.254352   -0.337547
 C        -14.081264   -3.869619   -0.248419
 N        -13.145248   -4.564232   -0.253913
 C         14.080976    3.869808   -0.247800
 N         13.144913    4.564359   -0.253160
 C         16.485510    3.664542   -0.293208
 N         17.489694    4.254814   -0.337095
 C        -11.990148    4.655914    0.098388
 H        -11.698452    5.271599   -0.761321
 H        -13.075361    4.545950    0.072844
 H        -11.734674    5.225092    1.000521
 C         11.990398   -4.655880    0.098122
 H         11.698577   -5.271738   -0.761417
 H         13.075598   -4.545842    0.072356
 H         11.735144   -5.224920    1.000406
        96
T1: Total Energy = -4975.05212063
 C          5.557186   -0.742140    0.099221
 C          5.072271    0.576224    0.099250
 S          4.221040   -1.892414    0.111208
 C          3.689048    0.667284    0.108101
 H          5.738396    1.430944    0.092598
 C          3.025831   -0.583674    0.114538
 H          3.135561    1.600281    0.109503
 C          1.632358   -0.750310    0.119345
 C          0.629764    0.284952    0.120087
 N          0.922022   -1.947573    0.120818
 C          0.480267    1.736452    0.120963
 C         -0.629724   -0.285083    0.120007
 C         -0.480227   -1.736583    0.120789
 C          1.449178   -3.304246    0.121250
 N         -0.921982    1.947441    0.120881
 O          1.299160    2.654594    0.121783
 C         -1.632317    0.750179    0.119252
 O         -1.299120   -2.654725    0.121466
 H          0.586289   -3.971340    0.124253
 H          2.050156   -3.494189    1.015089
 H          2.045752   -3.496683   -0.775021
 C         -1.449139    3.304114    0.121365
 C         -3.025790    0.583541    0.114300
 H         -0.586250    3.971209    0.124497
 H         -2.045630    3.496618   -0.774948
 H         -2.050200    3.493991    1.015162
 C         -3.689004   -0.667418    0.107715
 S         -4.221002    1.892279    0.110953
 H         -3.135515   -1.600413    0.109100
 C         -5.072226   -0.576361    0.098756
 C         -5.557145    0.742003    0.098782
 H         -5.738349   -1.431081    0.091992
 C         -6.873014    1.170523    0.088450
 C         -8.036437    1.563130    0.077127
 C          6.873055   -1.170665    0.088972
 C          8.036480   -1.563265    0.077668
 C         -9.361322    1.980962    0.061062
 C         -9.852609    3.292198    0.075217
 S        -10.662573    0.805830    0.015024
 C        -11.266174    3.348847    0.048511
 C         -8.964417    4.502913    0.115523
 C        -11.872854    2.082238    0.013446
 H         -7.909863    4.217670    0.125138
 H         -9.160611    5.108644    1.008911
 H         -9.134044    5.148463   -0.755001
 C        -13.269517    1.822391   -0.020316
 H        -13.916464    2.696235   -0.011160
 C        -13.967959    0.650236   -0.063889
 S        -13.354916   -1.005467   -0.097056
 C        -15.434157    0.659835   -0.092786
 C        -14.998479   -1.655178   -0.147933
 N        -15.934879   -0.668490   -0.139539
 O        -16.163120    1.638108   -0.080442
 C        -17.386139   -0.877015   -0.174379
 H        -17.674802   -1.401385   -1.086775
 H        -17.835930    0.115139   -0.159058
 H        -17.711530   -1.445487    0.698494
 C          9.361382   -1.981042    0.061476
 C          9.852723   -3.292258    0.075566
 S         10.662580   -0.805856    0.015334
 C         11.266287   -3.348850    0.048722
 C          8.964583   -4.503009    0.115939
 C         11.872913   -2.082216    0.013613
 H          7.910018   -4.217808    0.125668
 H          9.160892   -5.108751    1.009294
 H          9.134144   -5.148534   -0.754616
 C         13.269562   -1.822312   -0.020294
 H         13.916544   -2.696131   -0.011226
 C         13.967952   -0.650129   -0.063925
 S         13.354839    1.005551   -0.096991
 C         15.434147   -0.659669   -0.092999
 C         14.998371    1.655327   -0.148066
 N         15.934810    0.668675   -0.139804
 O         16.163149   -1.637915   -0.080762
 C         17.386057    0.877258   -0.174830
 H         17.674584    1.401634   -1.087266
 H         17.835890   -0.114878   -0.159560
 H         17.711537    1.445749    0.697998
 C        -15.191047   -3.031155   -0.189211
 C         15.190880    3.031312   -0.189354
 C        -16.452036   -3.689738   -0.230516
 N        -17.453349   -4.285785   -0.264972
 C        -14.046658   -3.881058   -0.190637
 N        -13.106458   -4.570255   -0.191584
 C         14.046457    3.881170   -0.190624
 N         13.106231    4.570332   -0.191445
 C         16.451838    3.689944   -0.230811
 N         17.453124    4.286029   -0.265385
 C        -12.001201    4.661125    0.056179
 H        -11.717781    5.268677   -0.812050
 H        -13.085682    4.543192    0.036697
 H        -11.746149    5.242761    0.950450
 C         12.001368   -4.661098    0.056318
 H         11.717704   -5.268763   -0.811750
 H         13.085839   -4.543124    0.036484
 H         11.746618   -5.242640    0.950739
        96
S1: Total Energy = -4975.02718005
 C          5.548235   -0.756377    0.104694
 C          5.070328    0.565703    0.103211
 S          4.211095   -1.899175    0.118785
 C          3.685923    0.658483    0.112613
 H          5.739697    1.417455    0.095126
 C          3.023523   -0.587272    0.120984
 H          3.134858    1.593455    0.113131
 C          1.620458   -0.747715    0.126109
 C          0.637245    0.284506    0.126729
 N          0.916502   -1.944180    0.127925
 C          0.495557    1.730799    0.127610
 C         -0.637408   -0.283828    0.126789
 C         -0.495720   -1.730121    0.127718
 C          1.441028   -3.301760    0.127928
 N         -0.916665    1.944859    0.127917
 O          1.308110    2.651139    0.128076
 C         -1.620621    0.748393    0.126206
 O         -1.308272   -2.650462    0.128288
 H          0.576027   -3.966250    0.130507
 H          2.040630   -3.494391    1.022178
 H          2.036588   -3.496118   -0.768665
 C         -1.441193    3.302438    0.127908
 C         -3.023687    0.587948    0.121198
 H         -0.576192    3.966928    0.130400
 H         -2.036818    3.496762   -0.768649
 H         -2.040732    3.495100    1.022194
 C         -3.686084   -0.657809    0.112938
 S         -4.211263    1.899848    0.119032
 H         -3.135015   -1.592780    0.113463
 C         -5.070489   -0.565034    0.103628
 C         -5.548400    0.757043    0.105077
 H         -5.739854   -1.416789    0.095636
 C         -6.860969    1.188793    0.094727
 C         -8.026655    1.580993    0.082768
 C          6.860801   -1.188136    0.094254
 C          8.026465   -1.580398    0.082202
 C         -9.347557    1.992959    0.065690
 C         -9.845771    3.306878    0.079081
 S        -10.650336    0.813699    0.018432
 C        -11.254488    3.360984    0.050668
 C         -8.959457    4.518490    0.120408
 C        -11.862678    2.089479    0.014619
 H         -7.904040    4.236437    0.129725
 H         -9.157675    5.123144    1.014186
 H         -9.131424    5.164729   -0.749225
 C        -13.254961    1.827746   -0.021649
 H        -13.905602    2.698559   -0.013471
 C        -13.951969    0.648559   -0.067502
 S        -13.330330   -1.001294   -0.100996
 C        -15.414315    0.650016   -0.099506
 C        -14.966795   -1.664274   -0.156191
 N        -15.907090   -0.683264   -0.148918
 O        -16.152507    1.624398   -0.087734
 C        -17.356610   -0.899540   -0.187229
 H        -17.640773   -1.424751   -1.100656
 H        -17.811218    0.090493   -0.171834
 H        -17.681268   -1.470966    0.684095
 C          9.347294   -1.992606    0.065336
 C          9.845264   -3.306615    0.078922
 S         10.650296   -0.813591    0.018097
 C         11.253972   -3.360984    0.050652
 C          8.958720   -4.518058    0.120289
 C         11.862402   -2.089596    0.014541
 H          7.903354   -4.235808    0.129471
 H          9.156738   -5.122654    1.014151
 H          9.130654   -5.164420   -0.749258
 C         13.254738   -1.828129   -0.021604
 H         13.905212   -2.699065   -0.013280
 C         13.951979   -0.649080   -0.067487
 S         13.330666    1.000892   -0.101189
 C         15.414328   -0.650826   -0.099331
 C         14.967266    1.663546   -0.156268
 N         15.907369    0.682353   -0.148798
 O         16.152328   -1.625351   -0.087383
 C         17.356936    0.898342   -0.186959
 H         17.641308    1.423423   -1.100395
 H         17.811348   -0.091779   -0.171431
 H         17.681605    1.469775    0.684356
 C        -15.149796   -3.044600   -0.199305
 C         15.150543    3.043832   -0.199497
 C        -16.405619   -3.710570   -0.244232
 N        -17.404201   -4.311933   -0.281667
 C        -14.000494   -3.886174   -0.198682
 N        -13.054911   -4.568709   -0.197860
 C         14.001408    3.885635   -0.199076
 N         13.055964    4.568362   -0.198422
 C         16.406503    3.709549   -0.244374
 N         17.405211    4.310707   -0.281770
 C        -11.995288    4.670510    0.056815
 H        -11.716091    5.279026   -0.812223
 H        -13.079067    4.546356    0.037318
 H        -11.744559    5.254865    0.950620
 C         11.994529   -4.670648    0.057018
 H         11.715084   -5.279329   -0.811822
 H         13.078328   -4.546702    0.037322
 H         11.743828   -5.254732    0.951010
