       144
S0: Total Energy = -6890.34145371
 C          5.196145    0.949153   -0.033080
 C          4.781793   -0.375584   -0.170474
 S          3.797734    2.027789    0.145383
 C          3.385361   -0.516238   -0.143561
 H          5.478514   -1.198031   -0.289821
 C          2.717777    0.685131    0.020038
 C          2.393533   -1.680314   -0.206480
 C          1.288091    0.493392    0.055076
 C          1.061969   -0.904465   -0.071613
 C          2.398404   -2.418570   -1.561883
 C          2.684930   -2.623633    0.981393
 C          0.228141    1.404998    0.174649
 C         -0.229959   -1.405157   -0.089657
 C          1.833291   -3.697315   -1.677692
 C          2.877216   -1.808387   -2.727544
 C          3.735716   -3.550891    0.889886
 C          2.002435   -2.529068    2.198726
 C         -1.063716    0.904313    0.156116
 H          0.417969    2.469072    0.279153
 C         -1.289880   -0.493574    0.029824
 H         -0.419815   -2.469211   -0.194268
 C          1.757557   -4.339783   -2.912272
 H          1.458219   -4.204256   -0.793717
 C          2.801569   -2.456794   -3.960969
 H          3.313282   -0.815376   -2.680326
 C          4.080944   -4.355286    1.972717
 H          4.285931   -3.652791   -0.041154
 C          2.351239   -3.339953    3.281623
 H          1.192294   -1.816869    2.314934
 C         -2.395250    1.680324    0.289456
 C         -2.719874   -0.685142    0.063609
 C          2.244382   -3.735366   -4.079018
 H          1.314648   -5.331810   -2.967724
 H          3.185446   -1.956049   -4.847036
 C          3.392270   -4.269321    3.191617
 H          4.900706   -5.062639    1.868279
 H          1.799668   -3.242469    4.214059
 C         -3.387147    0.516514    0.225300
 C         -2.685350    2.623732   -0.898693
 C         -2.401643    2.418550    1.644875
 S         -3.800264   -2.027894   -0.062038
 C          2.194769   -4.450232   -5.408746
 C          3.752117   -5.164880    4.353627
 C         -4.784065    0.376217    0.252954
 C         -3.738097    3.548965   -0.809030
 C         -1.999997    2.531116   -2.114546
 C         -1.838034    3.697912    1.761117
 C         -2.880391    1.807726    2.810241
 C         -5.197593   -0.948361    0.118060
 H          1.313192   -5.095829   -5.483766
 H          2.170623   -3.741967   -6.243394
 H          3.076910   -5.089112   -5.548895
 H          3.363102   -4.770780    5.297895
 H          3.337038   -6.172949    4.222150
 H          4.837703   -5.275413    4.452352
 H         -5.481919    1.196802    0.378363
 C         -4.082649    4.353181   -1.892179
 H         -4.290625    3.649169    0.120841
 C         -2.348041    3.341912   -3.197776
 H         -1.188304    1.820489   -2.229446
 C         -1.763631    4.340310    2.995828
 H         -1.463074    4.205317    0.877368
 C         -2.806086    2.456054    4.043795
 H         -3.315299    0.814219    2.762616
 C         -3.391148    4.269113   -3.109635
 H         -4.904257    5.058615   -1.789373
 H         -1.794270    3.245949   -4.129059
 C         -2.250339    3.735219    4.162276
 H         -1.321829    5.332819    3.051612
 H         -3.189795    1.954757    4.929632
 C         -3.750484    5.164310   -4.272065
 C         -2.202016    4.449943    5.492144
 H         -3.337510    6.173103   -4.139514
 H         -3.358932    4.771190   -5.215693
 H         -4.836078    5.272831   -4.372720
 H         -2.178582    3.741587    6.326735
 H         -1.320531    5.095568    5.568072
 H         -3.084274    5.088821    5.631610
 C         -6.540046   -1.446227    0.096198
 C         -7.032699   -2.760925    0.169117
 S         -7.875851   -0.322994   -0.048087
 C         -8.458093   -2.821065    0.118670
 C         -6.446804   -4.062746    0.305190
 C         -9.104245   -1.590533    0.011056
 S         -9.053385   -4.460475    0.224190
 C         -7.387453   -5.050140    0.344751
 H         -5.388218   -4.273696    0.378017
 C        -10.501851   -1.366662   -0.046053
 C         -7.195639   -6.504491    0.475729
 C        -11.225397   -0.213284   -0.142258
 H        -11.120212   -2.262950   -0.007229
 O         -5.894373   -6.834961    0.564535
 O         -8.113525   -7.305133    0.499914
 C        -12.689174   -0.248160   -0.185804
 S        -10.635809    1.448974   -0.230561
 C         -5.619446   -8.243835    0.696210
 O        -13.403925   -1.235418   -0.143870
 N        -13.208951    1.071481   -0.288494
 C        -12.288060    2.071135   -0.323797
 H         -4.534442   -8.321417    0.757007
 H         -6.085678   -8.639092    1.601780
 H         -5.996758   -8.787448   -0.173151
 C        -14.662637    1.256261   -0.347124
 C        -12.499048    3.442037   -0.418619
 H        -14.948432    1.741684   -1.281720
 H        -15.097658    0.258511   -0.299670
 H        -15.006632    1.851717    0.500267
 C        -13.768192    4.080971   -0.498109
 C        -11.365463    4.305818   -0.439883
 N        -14.776786    4.661722   -0.565555
 N        -10.432151    5.004252   -0.456469
 C          6.538214    1.447229   -0.018120
 C          7.030192    2.764542    0.017123
 S          7.878257    0.318790   -0.043058
 C          8.456630    2.822278    0.016327
 C          6.443381    4.072973    0.042230
 C          9.105025    1.588971   -0.020519
 S          9.051773    4.464490    0.052435
 C          7.384363    5.060689    0.063853
 H          5.383868    4.291226    0.041211
 C         10.503274    1.364251   -0.038581
 C          7.191156    6.520428    0.092395
 C         11.228721    0.208721   -0.082947
 H         11.120754    2.261659   -0.014185
 O          5.888214    6.856201    0.096718
 O          8.109519    7.320720    0.109831
 C         12.692937    0.242947   -0.095437
 S         10.640813   -1.455735   -0.134342
 C          5.611748    8.270617    0.124507
 O         13.406935    1.231326   -0.068458
 N         13.214607   -1.079094   -0.145883
 C         12.294555   -2.079789   -0.170382
 H          4.525318    8.352033    0.124411
 H          6.032216    8.722348    1.026051
 H          6.034939    8.758044   -0.756947
 C         14.669192   -1.264881   -0.167543
 C         12.507357   -3.452958   -0.217290
 H         14.974985   -1.778031   -1.080819
 H         15.103203   -0.265923   -0.140673
 H         14.994696   -1.834437    0.704569
 C         13.777794   -4.093451   -0.248285
 C         11.374359   -4.317525   -0.235658
 N         14.787516   -4.675560   -0.274931
 N         10.441394   -5.016483   -0.250198
       144
T1: Total Energy = -6890.30447197
 C          5.183706    0.961943    0.017101
 C          4.763203   -0.392536    0.025494
 S          3.771139    2.054600    0.031926
 C          3.386940   -0.531716    0.035801
 H          5.467691   -1.216532    0.027913
 C          2.695192    0.691384    0.041792
 C          2.397985   -1.699231    0.082104
 C          1.293451    0.498714    0.053503
 C          1.062332   -0.919055    0.078261
 C          2.448242   -2.596576   -1.172065
 C          2.650704   -2.485624    1.387501
 C          0.218495    1.419807    0.032344
 C         -0.218014   -1.419180    0.069947
 C          1.899402   -3.887237   -1.145674
 C          2.950174   -2.124200   -2.390807
 C          3.701987   -3.415005    1.445586
 C          1.930571   -2.239510    2.561048
 C         -1.061823    0.919641    0.022242
 H          0.408326    2.488740    0.024124
 C         -1.292940   -0.498101    0.048027
 H         -0.407822   -2.488127    0.077029
 C          1.862989   -4.674807   -2.295044
 H          1.506728   -4.288894   -0.216414
 C          2.914286   -2.917966   -3.537878
 H          3.374562   -1.127032   -2.454004
 C          4.009896   -4.077424    2.630725
 H          4.281887   -3.631252    0.553027
 C          2.242431   -2.908404    3.747295
 H          1.119174   -1.519291    2.561914
 C         -2.397522    1.699689    0.011980
 C         -2.694725   -0.690896    0.053941
 C          2.374370   -4.209139   -3.513775
 H          1.432401   -5.672253   -2.241069
 H          3.316036   -2.522856   -4.468207
 C          3.282837   -3.840825    3.806799
 H          4.830263   -4.791598    2.641601
 H          1.662218   -2.695577    4.642356
 C         -3.386605    0.532073    0.051460
 C         -2.643181    2.488181   -1.293438
 C         -2.454630    2.595007    1.267392
 S         -3.770575   -2.054196    0.057310
 C          2.368484   -5.080179   -4.747725
 C          3.603251   -4.583968    5.082110
 C         -4.762929    0.392711    0.047377
 C         -3.693148    3.418799   -1.355135
 C         -1.918290    2.242410   -2.464152
 C         -1.903785    3.884938    1.246557
 C         -2.965121    2.121476    2.482093
 C         -5.183286   -0.961734    0.054128
 H          1.498912   -5.745844   -4.764053
 H          2.354961   -4.478623   -5.662501
 H          3.263463   -5.715184   -4.788564
 H          3.180968   -4.078596    5.956399
 H          3.194399   -5.602847    5.061581
 H          4.684898   -4.675292    5.230900
 H         -5.467376    1.216663    0.036767
 C         -3.995201    4.082816   -2.540912
 H         -4.276794    3.634629   -0.464924
 C         -2.224207    2.912950   -3.650995
 H         -1.107870    1.521098   -2.462342
 C         -1.873650    4.670656    2.397341
 H         -1.504632    4.287470    0.320442
 C         -2.935465    2.913416    3.630641
 H         -3.391390    1.124849    2.540987
 C         -3.263275    3.846666   -3.714027
 H         -4.814825    4.797782   -2.554637
 H         -1.640410    2.700338   -4.543776
 C         -2.393524    4.203804    3.612052
 H         -1.441286    5.667563    2.347695
 H         -3.343756    2.517438    4.557749
 C         -3.577204    4.591574   -4.989915
 C         -2.394198    5.072930    4.847374
 H         -3.164418    5.608839   -4.967785
 H         -3.154378    4.084960   -5.863228
 H         -4.658051    4.687166   -5.141684
 H         -2.390967    4.469920    5.761274
 H         -1.521884    5.734754    4.872038
 H         -3.286656    5.711861    4.881697
 C         -6.499374   -1.445872    0.054758
 C         -7.005948   -2.777289    0.068142
 S         -7.855622   -0.305036    0.034487
 C         -8.420512   -2.827804    0.061761
 C         -6.425434   -4.080854    0.087874
 C         -9.078871   -1.583805    0.041690
 S         -9.026732   -4.460589    0.079411
 C         -7.374186   -5.070968    0.095992
 H         -5.367114   -4.304314    0.096030
 C        -10.467345   -1.370178    0.026952
 C         -7.188785   -6.530279    0.116512
 C        -11.200184   -0.205895   -0.002539
 H        -11.085096   -2.267199    0.038952
 O         -5.886330   -6.870886    0.128838
 O         -8.109706   -7.328449    0.121979
 C        -12.659644   -0.240979   -0.013820
 S        -10.613036    1.453942   -0.036229
 C         -5.615563   -8.286248    0.149837
 O        -13.375294   -1.231120    0.003523
 N        -13.182758    1.083224   -0.049835
 C        -12.264318    2.083098   -0.065462
 H         -4.529453   -8.372054    0.156800
 H         -6.043886   -8.742122    1.045633
 H         -6.034482   -8.766885   -0.737392
 C        -14.637177    1.267976   -0.068652
 C        -12.473806    3.459256   -0.099539
 H        -14.944277    1.789818   -0.976616
 H        -15.069947    0.268211   -0.051158
 H        -14.962716    1.828954    0.809062
 C        -13.743018    4.101049   -0.122792
 C        -11.339605    4.321290   -0.112400
 N        -14.753073    4.683366   -0.142507
 N        -10.404835    5.018291   -0.122969
 C          6.499611    1.445859   -0.003631
 C          7.006452    2.777314   -0.002358
 S          7.855412    0.304796   -0.042153
 C          8.420649    2.827697   -0.033111
 C          6.426387    4.080936    0.023774
 C          9.078617    1.583534   -0.059586
 S          9.027088    4.460482   -0.031627
 C          7.375137    5.071043    0.011623
 H          5.368406    4.304398    0.051533
 C         10.466653    1.369831   -0.095299
 C          7.190176    6.530429    0.030653
 C         11.199168    0.205411   -0.129268
 H         11.084468    2.266883   -0.098052
 O          5.888157    6.871211    0.064634
 O          8.111080    7.328525    0.017155
 C         12.658272    0.240664   -0.163315
 S         10.612071   -1.454703   -0.141927
 C          5.617942    8.286660    0.086855
 O         13.373809    1.231047   -0.164403
 N         13.181182   -1.083681   -0.197109
 C         12.262891   -2.083794   -0.191641
 H          4.532112    8.372666    0.111679
 H          6.061142    8.744474    0.974395
 H          6.022149    8.765230   -0.808279
 C         14.635300   -1.268314   -0.232955
 C         12.472199   -3.460132   -0.218775
 H         14.931078   -1.797902   -1.140113
 H         15.067950   -0.268350   -0.229535
 H         14.972104   -1.821644    0.645435
 C         13.741016   -4.101810   -0.259889
 C         11.338232   -4.322456   -0.204868
 N         14.750766   -4.684005   -0.293753
 N         10.403672   -5.019716   -0.192916
       144
S1: Total Energy = -6890.28506775
 C          5.183227    0.956843    0.032951
 C          4.766725   -0.391707    0.039734
 S          3.774503    2.049642    0.053611
 C          3.385452   -0.531734    0.053278
 H          5.470192   -1.216579    0.038913
 C          2.697844    0.689604    0.063434
 C          2.397257   -1.698957    0.099665
 C          1.292812    0.498473    0.076954
 C          1.062031   -0.918834    0.099776
 C          2.443873   -2.593307   -1.156640
 C          2.653101   -2.486633    1.403534
 C          0.220184    1.420112    0.058255
 C         -0.219565   -1.418871    0.092135
 C          1.898862   -3.885610   -1.131448
 C          2.939280   -2.115659   -2.376045
 C          3.703898   -3.416820    1.457756
 C          1.936609   -2.240519    2.579433
 C         -1.061393    0.920030    0.048341
 H          0.410400    2.488909    0.051019
 C         -1.292165   -0.497258    0.072186
 H         -0.409750   -2.487685    0.097758
 C          1.860049   -4.669825   -2.282984
 H          1.511383   -4.291174   -0.201711
 C          2.901216   -2.906245   -3.525188
 H          3.360032   -1.116825   -2.438034
 C          4.014633   -4.080299    2.641551
 H          4.281017   -3.632914    0.563382
 C          2.251186   -2.910657    3.764130
 H          1.126042   -1.519318    2.583458
 C         -2.396714    1.699964    0.040070
 C         -2.697206   -0.688607    0.077094
 C          2.365157   -4.199068   -3.502484
 H          1.432663   -5.668692   -2.230241
 H          3.297990   -2.507351   -4.456000
 C          3.291044   -3.844058    3.819846
 H          4.834482   -4.795068    2.649584
 H          1.673775   -2.698065    4.661031
 C         -3.385091    0.532585    0.076428
 C         -2.642943    2.491248   -1.263367
 C         -2.452674    2.590778    1.298643
 S         -3.773666   -2.048836    0.076624
 C          2.356612   -5.066649   -4.738785
 C          3.614298   -4.588514    5.093598
 C         -4.766402    0.392319    0.070696
 C         -3.692084    3.423030   -1.322033
 C         -1.919831    2.246396   -2.435491
 C         -1.905537    3.882330    1.281622
 C         -2.959097    2.110538    2.512468
 C         -5.182688   -0.956302    0.074218
 H          1.485996   -5.730926   -4.756018
 H          2.343190   -4.462574   -5.651863
 H          3.250540   -5.702946   -4.782049
 H          3.198527   -4.081261    5.969902
 H          3.200605   -5.605477    5.074993
 H          4.696202   -4.684806    5.237034
 H         -5.469911    1.217099    0.062470
 C         -3.994825    4.089355   -2.506316
 H         -4.274416    3.637944   -0.430765
 C         -2.226304    2.919455   -3.620645
 H         -1.110492    1.523815   -2.436240
 C         -1.875260    4.663308    2.435586
 H         -1.509711    4.289855    0.356272
 C         -2.929500    2.897899    3.664103
 H         -3.381891    1.112194    2.568131
 C         -3.264469    3.854498   -3.680691
 H         -4.813766    4.805098   -2.517871
 H         -1.643896    2.707779   -4.514527
 C         -2.391301    4.189932    3.649507
 H         -1.445940    5.661665    2.389196
 H         -3.334647    2.497028    4.590454
 C         -3.579082    4.601970   -4.954831
 C         -2.391754    5.054059    4.888269
 H         -3.163546    5.618093   -4.931932
 H         -3.159321    4.095575   -5.829728
 H         -4.659968    4.700622   -5.104136
 H         -2.388241    4.447405    5.799723
 H         -1.519579    5.715961    4.915303
 H         -3.284321    5.692670    4.925203
 C         -6.505845   -1.446537    0.070103
 C         -7.006218   -2.774355    0.091435
 S         -7.857278   -0.309676    0.029358
 C         -8.426171   -2.827196    0.074829
 C         -6.424971   -4.077907    0.128420
 C         -9.080631   -1.588380    0.038630
 S         -9.028348   -4.463629    0.103090
 C         -7.371433   -5.069376    0.138573
 H         -5.366510   -4.300293    0.147792
 C        -10.472383   -1.370104    0.009954
 C         -7.183407   -6.526823    0.174771
 C        -11.201646   -0.207636   -0.039757
 H        -11.091365   -2.266333    0.027301
 O         -5.879802   -6.865575    0.200798
 O         -8.102726   -7.327528    0.180880
 C        -12.662176   -0.240869   -0.063542
 S        -10.612871    1.451203   -0.090027
 C         -5.607961   -8.280056    0.238254
 O        -13.380107   -1.229601   -0.039225
 N        -13.181571    1.083349   -0.122224
 C        -12.261609    2.082225   -0.142727
 H         -4.521840   -8.364884    0.256016
 H         -6.043986   -8.727890    1.134455
 H         -6.018180   -8.770221   -0.647901
 C        -14.635411    1.270258   -0.156746
 C        -12.469536    3.459220   -0.196733
 H        -14.933158    1.782046   -1.073489
 H        -15.069835    0.271359   -0.131613
 H        -14.968210    1.842014    0.711277
 C        -13.737305    4.101842   -0.238996
 C        -11.334953    4.320041   -0.211252
 N        -14.746781    4.684905   -0.274594
 N        -10.399413    5.016352   -0.222908
 C          6.506279    1.446739    0.007619
 C          7.007179    2.774493    0.017498
 S          7.856763    0.309469   -0.051177
 C          8.426660    2.827026   -0.023026
 C          6.426786    4.078233    0.060361
 C          9.080308    1.587963   -0.065366
 S          9.029358    4.463484   -0.010952
 C          7.373346    5.069606    0.050443
 H          5.368879    4.300735    0.098622
 C         10.471476    1.369366   -0.113389
 C          7.186129    6.527210    0.084653
 C         11.200134    0.206634   -0.165754
 H         11.090627    2.265637   -0.110624
 O          5.883192    6.866315    0.131039
 O          8.105532    7.327750    0.072428
 C         12.660201    0.239901   -0.210672
 S         10.611233   -1.452692   -0.193652
 C          5.612277    8.280968    0.168700
 O         13.378118    1.228925   -0.205222
 N         13.179134   -1.084691   -0.264793
 C         12.259261   -2.083857   -0.263820
 H          4.526572    8.366161    0.202593
 H          6.061836    8.731082    1.057046
 H          6.009266    8.768631   -0.724826
 C         14.632517   -1.271682   -0.314993
 C         12.466801   -3.461230   -0.308540
 H         14.919463   -1.792633   -1.229948
 H         15.066902   -0.272499   -0.305091
 H         14.975865   -1.834609    0.554756
 C         13.733947   -4.103895   -0.366125
 C         11.332453   -4.322393   -0.296162
 N         14.742928   -4.686954   -0.413774
 N         10.397120   -5.018991   -0.285194
