       152
S0: Total Energy = -6366.68745705
 C         -9.209802    0.636353    0.004557
 C         -8.666956    1.945185    0.069671
 C         -9.253212    3.247302    0.121267
 C         -8.309419    4.238384    0.178347
 S         -6.649917    3.622608    0.207426
 C         -7.253092    1.983296    0.090023
 C         -6.649915    0.722031    0.038084
 S         -7.884386   -0.528523   -0.038511
 H        -10.320179    3.424342    0.135305
 C          9.209800   -0.636352   -0.004473
 C          8.666950   -1.945178   -0.069613
 C          9.253207   -3.247293   -0.121300
 C          8.309417   -4.238375   -0.178403
 S          6.649905   -3.622593   -0.207391
 C          7.253083   -1.983289   -0.089925
 C          6.649919   -0.722021   -0.037922
 S          7.884388    0.528522    0.038707
 H         10.320175   -3.424320   -0.135369
 C        -10.599346    0.420358   -0.029042
 C        -11.406273   -0.704247   -0.086110
 C        -10.931787   -2.102144   -0.111710
 O         -9.766361   -2.491521   -0.106091
 C        -12.135413   -2.962500   -0.143876
 C        -12.198481   -4.348223   -0.168738
 C        -13.460308   -4.948709   -0.194595
 C        -14.614250   -4.156795   -0.195011
 C        -14.545360   -2.758797   -0.170839
 C        -13.286130   -2.150801   -0.145012
 C        -12.864908   -0.723736   -0.117684
 C        -13.739516    0.356084   -0.130578
 C        -13.327982    1.723107   -0.121883
 N        -13.027734    2.850171   -0.117827
 C        -15.160619    0.224279   -0.161190
 N        -16.324963    0.176292   -0.186141
 H        -11.128352    1.364039   -0.001997
 H        -11.285251   -4.935442   -0.167384
 H        -15.462225   -2.185369   -0.171617
 C         10.599349   -0.420362    0.029069
 C         11.406282    0.704238    0.086052
 C         10.931804    2.102138    0.111764
 O          9.766378    2.491518    0.106255
 C         12.135435    2.962487    0.143868
 C         12.198511    4.348209    0.168773
 C         13.460343    4.948690    0.194532
 C         14.614282    4.156771    0.194802
 C         14.545385    2.758775    0.170582
 C         13.286150    2.150784    0.144860
 C         12.864924    0.723723    0.117503
 C         13.739532   -0.356099    0.130246
 C         13.327997   -1.723122    0.121478
 N         13.027749   -2.850185    0.117372
 C         15.160637   -0.224297    0.160758
 N         16.324982   -0.176306    0.185625
 H         11.128347   -1.364047    0.002028
 H         11.285283    4.935431    0.167529
 H         15.462248    2.185343    0.171241
 C         -8.414572    5.714495    0.334766
 C          8.414502   -5.714491   -0.334875
 C          5.265561   -0.365278   -0.043386
 C          4.711472    0.913584   -0.115092
 S          3.994337   -1.600388    0.052933
 C          3.309477    0.898900   -0.087211
 H          5.316935    1.809275   -0.197419
 C          2.777071   -0.378241   -0.003218
 C          2.193899    1.942773   -0.179849
 C          1.335008   -0.347743    0.004654
 C          0.955875    1.018456   -0.103538
 C          2.158705    2.913614    1.019337
 C          2.335520    2.677328   -1.531247
 C          0.383105   -1.374032    0.103868
 C         -0.383103    1.374046   -0.103657
 C          1.448323    4.120690    0.935577
 C          2.746942    2.585765    2.246590
 C          3.271403    3.716056   -1.662375
 C          1.631764    2.284785   -2.674611
 C         -0.955874   -1.018441    0.103737
 H          0.690748   -2.412788    0.176929
 C         -1.335007    0.347758   -0.004433
 H         -0.690748    2.412800   -0.176727
 C          1.337564    4.966510    2.037585
 H          0.984632    4.410813   -0.002482
 C          2.635927    3.437761    3.346557
 H          3.297127    1.656131    2.353908
 C          3.484282    4.340702   -2.888432
 H          3.834752    4.047407   -0.794720
 C          1.847835    2.915957   -3.902014
 H          0.908608    1.477961   -2.618841
 C         -2.193894   -1.942762    0.180005
 C         -2.777070    0.378257    0.003424
 C          1.932862    4.645069    3.265024
 H          0.779242    5.894932    1.939597
 H          3.106902    3.154709    4.285294
 C          2.772907    3.956238   -4.034402
 H          4.216620    5.142287   -2.955669
 H          1.282981    2.587794   -4.771670
 C         -3.309476   -0.898891    0.087378
 C         -2.335551   -2.677362    1.531372
 C         -2.158665   -2.913564   -1.019212
 S         -3.994331    1.600407   -0.052667
 C          1.840015    5.581531    4.446606
 C          2.986219    4.657913   -5.354973
 C         -4.711466   -0.913574    0.115254
 C         -3.271434   -3.716113    1.662426
 C         -1.631840   -2.284871    2.674771
 C         -1.448264   -4.120627   -0.935483
 C         -2.746897   -2.585683   -2.246461
 C         -5.265560    0.365292    0.043580
 H          0.872898    6.094967    4.475434
 H          1.969873    5.046097    5.392719
 H          2.616421    6.356867    4.400827
 H          2.615398    4.057194   -6.191538
 H          2.459446    5.620975   -5.383045
 H          4.047433    4.867003   -5.530381
 H         -5.316939   -1.809261    0.197554
 C         -3.484349   -4.340817    2.888437
 H         -3.834738   -4.047440    0.794731
 C         -1.847950   -2.916107    3.902144
 H         -0.908674   -1.478052    2.619064
 C         -1.337481   -4.966410   -2.037520
 H         -0.984573   -4.410771    0.002570
 C         -2.635858   -3.437640   -3.346453
 H         -3.297099   -1.656056   -2.353753
 C         -2.773020   -3.956386    4.034459
 H         -4.216668   -5.142427    2.955602
 H         -1.283116   -2.587991    4.771829
 C         -1.932774   -4.644941   -3.264951
 H         -0.779144   -5.894826   -1.939556
 H         -3.106827   -3.154564   -4.285186
 C         -2.986495   -4.658062    5.355005
 C         -1.839915   -5.581364   -4.446564
 H         -2.461926   -5.622347    5.382148
 H         -2.613419   -4.058482    6.191379
 H         -4.048002   -4.864785    5.531493
 H         -1.969363   -5.045836   -5.392680
 H         -0.872953   -6.095102   -4.475171
 H         -2.616580   -6.356455   -4.401031
 O         -9.540617    6.377026    0.017165
 O         -7.468497    6.344801    0.770284
 O          7.468334   -6.344745   -0.770272
 O          9.540524   -6.377102   -0.017373
 C        -10.609138    5.841654   -0.785744
 H        -11.083394    6.710199   -1.244372
 H        -10.229192    5.177118   -1.564813
 H        -11.340520    5.320169   -0.163142
 C         10.609394   -5.841628    0.784995
 H         10.229768   -5.177122    1.564248
 H         11.083944   -6.710133    1.243389
 H         11.340432   -5.320085    0.162038
 H         15.589975    4.633251    0.214132
 H         13.548634    6.030850    0.214071
 H        -13.548593   -6.030871   -0.214098
 H        -15.589940   -4.633278   -0.214424
       152
T1: Total Energy = -6366.65324101
 C         -9.183483    0.642244    0.007978
 C         -8.637035    1.963564    0.032909
 C         -9.230463    3.258753    0.047022
 C         -8.293559    4.263003    0.060210
 S         -6.633812    3.643024    0.086652
 C         -7.229096    2.005955    0.038937
 C         -6.613968    0.739593    0.015169
 S         -7.862152   -0.527515   -0.009369
 H        -10.298715    3.425013    0.064334
 C          9.183472   -0.642232   -0.008057
 C          8.637022   -1.963551   -0.033015
 C          9.230449   -3.258740   -0.047171
 C          8.293543   -4.262990   -0.060337
 S          6.633797   -3.643008   -0.086758
 C          7.229083   -2.005942   -0.039017
 C          6.613956   -0.739579   -0.015206
 S          7.862142    0.527529    0.009308
 H         10.298699   -3.425000   -0.064514
 C        -10.569178    0.428656   -0.004832
 C        -11.378931   -0.704295   -0.028778
 C        -10.903336   -2.104182   -0.037508
 O         -9.737436   -2.492058   -0.034267
 C        -12.105565   -2.966402   -0.050175
 C        -12.168222   -4.351830   -0.058464
 C        -13.430572   -4.953401   -0.068809
 C        -14.583309   -4.160946   -0.070556
 C        -14.514201   -2.761729   -0.062661
 C        -13.255607   -2.153677   -0.052438
 C        -12.831577   -0.726256   -0.043607
 C        -13.709148    0.357237   -0.053715
 C        -13.301670    1.724253   -0.056004
 N        -13.008409    2.853729   -0.060089
 C        -15.129149    0.223595   -0.067716
 N        -16.294139    0.173710   -0.079621
 H        -11.100621    1.370534    0.007954
 H        -11.254807   -4.938873   -0.056652
 H        -15.431162   -2.188423   -0.064099
 C         10.569168   -0.428649    0.004767
 C         11.378931    0.704294    0.028764
 C         10.903354    2.104187    0.037555
 O          9.737459    2.492079    0.034328
 C         12.105595    2.966391    0.050249
 C         12.168270    4.351817    0.058591
 C         13.430628    4.953372    0.068962
 C         14.583354    4.160901    0.070683
 C         14.514228    2.761686    0.062736
 C         13.255626    2.153650    0.052485
 C         12.831576    0.726235    0.043599
 C         13.709127   -0.357274    0.053678
 C         13.301618   -1.724281    0.055932
 N         13.008320   -2.853748    0.060013
 C         15.129130   -0.223662    0.067706
 N         16.294121   -0.173805    0.079623
 H         11.100606   -1.370531   -0.008045
 H         11.254863    4.938872    0.056800
 H         15.431182    2.188368    0.064157
 C         -8.377880    5.741179    0.152877
 C          8.377857   -5.741166   -0.153002
 C          5.250246   -0.390248   -0.011733
 C          4.692641    0.909349   -0.001096
 S          3.969611   -1.628585   -0.021307
 C          3.306863    0.899118    0.005379
 H          5.306400    1.802661   -0.004023
 C          2.754924   -0.391483   -0.006629
 C          2.196955    1.952087   -0.020064
 C          1.337610   -0.352897   -0.008791
 C          0.954965    1.030679   -0.020590
 C          2.155443    2.832021    1.247019
 C          2.354393    2.779245   -1.315091
 C          0.373522   -1.387223    0.006474
 C         -0.373532    1.387238   -0.006360
 C          1.452890    4.046531    1.243980
 C          2.726944    2.409518    2.452981
 C          3.290542    3.824805   -1.361032
 C          1.666485    2.464994   -2.491733
 C         -0.954976   -1.030665    0.020702
 H          0.680591   -2.428588    0.006234
 C         -1.337620    0.352912    0.008898
 H         -0.680602    2.428602   -0.006128
 C          1.334670    4.809228    2.404115
 H          1.002041    4.408430    0.324855
 C          2.608710    3.179131    3.611333
 H          3.270812    1.471147    2.498671
 C          3.517534    4.533005   -2.537955
 H          3.842755    4.095129   -0.465689
 C          1.896364    3.180523   -3.669228
 H          0.944403    1.655281   -2.502328
 C         -2.196965   -1.952072    0.020174
 C         -2.754934    0.391497    0.006703
 C          1.914225    4.394071    3.610972
 H          0.783434    5.746247    2.368717
 H          3.067022    2.824430    4.531698
 C          2.820944    4.228584   -3.716746
 H          4.249486    5.337635   -2.540152
 H          1.343407    2.912989   -4.566749
 C         -3.306873   -0.899104   -0.005310
 C         -2.354424   -2.779196    1.315220
 C         -2.155433   -2.832043   -1.246882
 S         -3.969622    1.628599    0.021328
 C          1.813923    5.241937    4.856889
 C          3.049793    5.020464   -4.982336
 C         -4.692652   -0.909334    0.001128
 C         -3.290582   -3.824757    1.361171
 C         -1.666527   -2.464932    2.491858
 C         -1.452946   -4.046589   -1.243771
 C         -2.726850   -2.409545   -2.452887
 C         -5.250257    0.390262    0.011743
 H          0.847126    5.753260    4.916366
 H          1.937247    4.639001    5.762292
 H          2.591278    6.017421    4.872194
 H          2.691714    4.478648   -5.863386
 H          2.520620    5.982013   -4.949965
 H          4.112597    5.243236   -5.128179
 H         -5.306411   -1.802646    0.004040
 C         -3.517591   -4.532931    2.538099
 H         -3.842775   -4.095102    0.465821
 C         -1.896426   -3.180441    3.669368
 H         -0.944428   -1.655234    2.502445
 C         -1.334708   -4.809327   -2.403878
 H         -1.002165   -4.408486   -0.324612
 C         -2.608598   -3.179198   -3.611209
 H         -3.270666   -1.471145   -2.498632
 C         -2.821018   -4.228481    3.716900
 H         -4.249540   -5.337564    2.540298
 H         -1.343465   -2.912905    4.566885
 C         -1.914178   -4.394177   -3.610776
 H         -0.783524   -5.746376   -2.368424
 H         -3.066843   -2.824498   -4.531609
 C         -3.049976   -5.020294    4.982513
 C         -1.813868   -5.242084   -4.856663
 H         -2.522282   -5.982629    4.949491
 H         -2.690375   -4.479188    5.863376
 H         -4.112994   -5.241518    5.129200
 H         -1.936824   -4.639121   -5.762099
 H         -0.847214   -5.753699   -4.915932
 H         -2.591457   -6.017332   -4.872125
 O         -9.520642    6.406454   -0.097438
 O         -7.391394    6.383732    0.469679
 O          7.391501   -6.383672   -0.470308
 O          9.520738   -6.406413    0.096847
 C        -10.676968    5.840227   -0.738566
 H        -11.220578    6.692633   -1.147641
 H        -10.393391    5.164729   -1.548972
 H        -11.313648    5.323003   -0.016238
 C         10.677164   -5.840283    0.737878
 H         10.393718   -5.165111    1.548600
 H         11.220975   -6.692776    1.146507
 H         11.313601   -5.322727    0.015574
 H         15.559577    4.636820    0.078312
 H         13.518977    6.035673    0.075493
 H        -13.518907   -6.035704   -0.075298
 H        -15.559526   -4.636877   -0.078163
       152
S1: Total Energy = -6366.63560978
 C         -9.187411    0.642548    0.011263
 C         -8.644494    1.958045    0.038581
 C         -9.234725    3.256054    0.056437
 C         -8.296425    4.257402    0.070528
 S         -6.633473    3.638449    0.094665
 C         -7.230763    1.999099    0.043112
 C         -6.623309    0.736043    0.015994
 S         -7.865517   -0.526795   -0.010580
 H        -10.302603    3.424600    0.075635
 C          9.187489   -0.642707   -0.009227
 C          8.644577   -1.958260   -0.033757
 C          9.234779   -3.256354   -0.045965
 C          8.296462   -4.257694   -0.058565
 S          6.633605   -3.638779   -0.088313
 C          7.230854   -1.999281   -0.041067
 C          6.623390   -0.736126   -0.018786
 S          7.865598    0.526747    0.005954
 H         10.302682   -3.425051   -0.062294
 C        -10.577180    0.426582   -0.001194
 C        -11.385173   -0.702764   -0.027029
 C        -10.909345   -2.102774   -0.039016
 O         -9.743183   -2.490414   -0.036751
 C        -12.111414   -2.964456   -0.053539
 C        -12.174151   -4.349661   -0.065331
 C        -13.436679   -4.951570   -0.077545
 C        -14.589504   -4.158873   -0.077606
 C        -14.520805   -2.759776   -0.066071
 C        -13.261982   -2.150719   -0.053946
 C        -12.840093   -0.725118   -0.041501
 C        -13.717545    0.359532   -0.048358
 C        -13.308702    1.725597   -0.046666
 N        -13.012073    2.854576   -0.047279
 C        -15.137216    0.226799   -0.062270
 N        -16.302532    0.177095   -0.073910
 H        -11.107721    1.369202    0.013699
 H        -11.260617   -4.936582   -0.064852
 H        -15.437724   -2.186374   -0.066309
 C         10.577230   -0.426755    0.006497
 C         11.385174    0.702651    0.031276
 C         10.909335    2.102700    0.036196
 O          9.743193    2.490331    0.028618
 C         12.111357    2.964430    0.051333
 C         12.174070    4.349673    0.057565
 C         13.436556    4.951629    0.071494
 C         14.589364    4.158939    0.078741
 C         14.520687    2.759806    0.072826
 C         13.261904    2.150701    0.059000
 C         12.840040    0.725058    0.050983
 C         13.717449   -0.359542    0.065908
 C         13.308635   -1.725612    0.068513
 N         13.012044   -2.854592    0.072736
 C         15.137056   -0.226726    0.084930
 N         16.302314   -0.176941    0.101044
 H         11.107776   -1.369441   -0.003891
 H         11.260549    4.936585    0.051577
 H         15.437592    2.186412    0.078525
 C         -8.381025    5.735393    0.166646
 C          8.381366   -5.735992   -0.149586
 C          5.249680   -0.381575   -0.016650
 C          4.696334    0.911754   -0.009265
 S          3.974341   -1.621011   -0.023151
 C          3.304801    0.900515   -0.002547
 H          5.308095    1.806394   -0.014088
 C          2.757468   -0.387955   -0.011418
 C          2.195321    1.952763   -0.030038
 C          1.337255   -0.352046   -0.013062
 C          0.953953    1.031230   -0.028703
 C          2.152373    2.833652    1.236111
 C          2.353525    2.776602   -1.326821
 C          0.375785   -1.386991    0.005249
 C         -0.375689    1.387009   -0.015255
 C          1.452435    4.049772    1.231263
 C          2.720691    2.409865    2.443102
 C          3.287165    3.824360   -1.373786
 C          1.669457    2.456288   -2.504240
 C         -0.953855   -1.031212    0.018670
 H          0.683751   -2.428010    0.008212
 C         -1.337161    0.352069    0.003308
 H         -0.683647    2.428029   -0.018146
 C          1.333872    4.812804    2.390971
 H          1.004226    4.412499    0.311176
 C          2.602395    3.180171    3.601033
 H          3.261964    1.469997    2.489971
 C          3.514984    4.529298   -2.552509
 H          3.836681    4.098900   -0.478093
 C          1.899975    3.168721   -3.683297
 H          0.949958    1.644214   -2.514207
 C         -2.195224   -1.952741    0.020177
 C         -2.757382    0.387988    0.002610
 C          1.910501    4.396501    3.599079
 H          0.784834    5.751064    2.354482
 H          3.058399    2.824841    4.522249
 C          2.821857    4.219288   -3.731874
 H          4.244896    5.335731   -2.555670
 H          1.350016    2.896775   -4.581306
 C         -3.304709   -0.900480   -0.006199
 C         -2.352784   -2.777276    1.316590
 C         -2.152887   -2.832938   -1.246479
 S         -3.974276    1.621024    0.016366
 C          1.808773    5.244827    4.844492
 C          3.051195    5.007845   -4.999363
 C         -4.696234   -0.911756    0.002180
 C         -3.286106   -3.825320    1.363377
 C         -1.668469   -2.457271    2.493958
 C         -1.452470   -4.048791   -1.242776
 C         -2.722312   -2.408780   -2.452810
 C         -5.249590    0.381548    0.011085
 H          0.832972    5.737512    4.914569
 H          1.954466    4.646276    5.749387
 H          2.570801    6.035457    4.848675
 H          2.702733    4.459465   -5.880199
 H          2.513476    5.964858   -4.973834
 H          4.112821    5.239208   -5.139968
 H         -5.307953   -1.806423    0.007683
 C         -3.513365   -4.530843    2.541865
 H         -3.835838   -4.099604    0.467742
 C         -1.898418   -3.170289    3.672765
 H         -0.949227   -1.644971    2.504072
 C         -1.334500   -4.811198   -2.402949
 H         -1.003421   -4.411806   -0.323211
 C         -2.604603   -3.178466   -3.611220
 H         -3.264012   -1.469115   -2.498785
 C         -2.819971   -4.221160    3.721153
 H         -4.243047   -5.337485    2.544893
 H         -1.348277   -2.898569    4.570732
 C         -1.912225   -4.394515   -3.610409
 H         -0.785069   -5.749263   -2.367346
 H         -3.061471   -2.822864   -4.531903
 C         -3.048660   -5.010359    4.988359
 C         -1.811120   -5.242180   -4.856324
 H         -2.510096   -5.966889    4.962513
 H         -2.700697   -4.461987    5.869398
 H         -4.110086   -5.242697    5.128849
 H         -1.958016   -4.643282   -5.760794
 H         -0.835081   -5.734229   -4.927540
 H         -2.572662   -6.033280   -4.860185
 O         -9.523316    6.401483   -0.083506
 O         -7.394891    6.376730    0.487437
 O          7.396218   -6.378436   -0.471163
 O          9.522979   -6.401136    0.106137
 C        -10.677803    5.838304   -0.730839
 H        -11.218192    6.692383   -1.140725
 H        -10.391773    5.163740   -1.541127
 H        -11.318435    5.320754   -0.012262
 C         10.675401   -5.835803    0.755298
 H         10.386844   -5.158179    1.562126
 H         11.214245   -6.688474    1.170124
 H         11.318543   -5.321010    0.036992
 H         15.565494    4.635115    0.089156
 H         13.524855    6.033957    0.076566
 H        -13.524995   -6.033868   -0.086868
 H        -15.565662   -4.635015   -0.086751
