       106
S0: Total Energy = -4667.15573219
 C          0.714744    1.616459    0.655054
 C          2.005432    0.937000    0.176965
 C          3.301913    1.408124    0.235622
 C          4.366508    0.611732   -0.256634
 C          4.072676   -0.659253   -0.798179
 C          2.768968   -1.139649   -0.860575
 C          1.724916   -0.343741   -0.373099
 C          0.292215   -0.544543   -0.287706
 H          3.514103    2.370034    0.692407
 H          4.877889   -1.266874   -1.199944
 H          2.575330   -2.117156   -1.291368
 C         -0.714745   -1.616467   -0.655056
 C         -2.005434   -0.937008   -0.176967
 C         -3.301914   -1.408131   -0.235626
 C         -4.366510   -0.611738    0.256629
 C         -4.072677    0.659246    0.798175
 C         -2.768969    1.139641    0.860572
 C         -1.724917    0.343733    0.373097
 C         -0.292216    0.544534    0.287704
 H         -3.514105   -2.370042   -0.692411
 H         -4.877891    1.266867    1.199939
 H         -2.575331    2.117148    1.291365
 C          8.290893    1.260771   -0.093364
 C          7.628338    2.514518   -0.124391
 C          8.074394    3.873929   -0.148847
 C          7.046148    4.769884   -0.221948
 S          5.458812    3.985976   -0.266427
 C          6.215509    2.401750   -0.172492
 C          5.739665    1.096134   -0.196194
 S          7.080371   -0.031094   -0.125017
 H          9.113170    4.185523   -0.119404
 C         -8.290895   -1.260773    0.093352
 C         -7.628341   -2.514521    0.124381
 C         -8.074399   -3.873932    0.148839
 C         -7.046153   -4.769887    0.221942
 S         -5.458817   -3.985982    0.266423
 C         -6.215512   -2.401754    0.172483
 C         -5.739667   -1.096139    0.196186
 S         -7.080371    0.031091    0.125003
 H         -9.113175   -4.185525    0.119397
 C          9.692482    1.172465   -0.037448
 C         10.601189    0.123276   -0.001691
 C         10.260418   -1.311365   -0.014494
 O          9.143638   -1.820697   -0.055604
 C         11.540544   -2.055045    0.033874
 C         11.722624   -3.431331    0.040043
 C         13.028455   -3.897565    0.090061
 C         14.104278   -3.001846    0.132206
 C         13.919955   -1.624219    0.126066
 C         12.607556   -1.141122    0.075703
 C         12.053558    0.240045    0.055081
 C         12.830255    1.391348    0.085892
 C         12.305372    2.718376    0.064835
 N         11.920762    3.819150    0.048506
 C         14.256318    1.378939    0.141805
 N         15.420365    1.421282    0.187251
 H         10.132729    2.161702   -0.016530
 H         10.884352   -4.118948    0.007316
 F         13.290368   -5.211215    0.099097
 F         15.344814   -3.507221    0.179656
 H         14.796673   -0.992242    0.160377
 C         -9.692483   -1.172465    0.037437
 C        -10.601189   -0.123274    0.001680
 C        -10.260413    1.311366    0.014479
 O         -9.143633    1.820694    0.055612
 C        -11.540538    2.055050   -0.033865
 C        -11.722615    3.431336   -0.040013
 C        -13.028445    3.897573   -0.090018
 C        -14.104271    3.001857   -0.132169
 C        -13.919950    1.624230   -0.126048
 C        -12.607553    1.141130   -0.075699
 C        -12.053557   -0.240039   -0.055092
 C        -12.830258   -1.391340   -0.085909
 C        -12.305379   -2.718369   -0.064861
 N        -11.920772   -3.819145   -0.048537
 C        -14.256321   -1.378927   -0.141818
 N        -15.420368   -1.421266   -0.187259
 H        -10.132733   -2.161701    0.016519
 H        -10.884341    4.118951   -0.007283
 F        -13.290355    5.211224   -0.099035
 F        -15.344805    3.507236   -0.179605
 H        -14.796670    0.992255   -0.160361
 C          7.134668    6.263298   -0.263847
 H          6.674868    6.666917   -1.173740
 H          6.622457    6.718603    0.592227
 C         -7.134675   -6.263302    0.263822
 H         -6.622601   -6.718587   -0.592347
 H         -6.674732   -6.666948    1.173631
 C          0.746233    1.878305    2.178912
 H         -0.208650    2.294935    2.517777
 H          1.534399    2.596890    2.428950
 C          0.455542    2.935749   -0.109318
 H          1.237225    3.669673    0.115277
 H         -0.506905    3.368490    0.184907
 C         -0.746234   -1.878313   -2.178914
 H         -1.534400   -2.596899   -2.428952
 H          0.208649   -2.294943   -2.517779
 C         -0.455544   -2.935757    0.109317
 H         -1.237226   -3.669682   -0.115278
 H          0.506903   -3.368499   -0.184909
 H          8.182544    6.574800   -0.241505
 H         -8.182555   -6.574799    0.241636
 H          0.934330    0.954438    2.734899
 H          0.440535    2.769390   -1.191051
 H         -0.934331   -0.954446   -2.734901
 H         -0.440536   -2.769399    1.191049
       106
T1: Total Energy = -4667.11126257
 C         -0.649575    1.767717   -0.144188
 C         -1.975000    0.998066   -0.042613
 C         -3.253731    1.493587   -0.058961
 C         -4.372952    0.609559    0.044445
 C         -4.108289   -0.791778    0.157240
 C         -2.826964   -1.297796    0.174999
 C         -1.731946   -0.410250    0.076300
 C         -0.326129   -0.611014    0.062512
 H         -3.412350    2.560402   -0.168340
 H         -4.939576   -1.484119    0.242655
 H         -2.669346   -2.367886    0.265852
 C          0.649575   -1.767812    0.144150
 C          1.975002   -0.998157    0.042644
 C          3.253726   -1.493676    0.059112
 C          4.372968   -0.609659   -0.044254
 C          4.108298    0.791675   -0.157210
 C          2.826979    1.297693   -0.175061
 C          1.731949    0.410157   -0.076338
 C          0.326135    0.610921   -0.062572
 H          3.412317   -2.560496    0.168452
 H          4.939585    1.484024   -0.242562
 H          2.669369    2.367779   -0.265970
 C         -8.288054    1.260869    0.015538
 C         -7.618231    2.521021    0.023869
 C         -8.083292    3.873851    0.036315
 C         -7.067881    4.786174    0.058173
 S         -5.478690    4.006614    0.066063
 C         -6.212064    2.415757    0.032333
 C         -5.717128    1.100094    0.035102
 S         -7.087322   -0.031919    0.021268
 H         -9.127406    4.168696    0.031708
 C          8.288074   -1.260901   -0.015131
 C          7.618261   -2.521074   -0.022312
 C          8.083354   -3.873903   -0.033473
 C          7.067964   -4.786273   -0.054375
 S          5.478762   -4.006744   -0.062907
 C          6.212098   -2.415840   -0.030816
 C          5.717130   -1.100178   -0.034676
 S          7.087334    0.031868   -0.021979
 H          9.127476   -4.168717   -0.028633
 C         -9.689329    1.177736    0.003068
 C        -10.602173    0.122743   -0.003365
 C        -10.262145   -1.316346   -0.000833
 O         -9.144708   -1.824810    0.006897
 C        -11.542400   -2.059353   -0.010024
 C        -11.726562   -3.434767   -0.011168
 C        -13.034713   -3.899650   -0.020754
 C        -14.107949   -3.001590   -0.028874
 C        -13.921087   -1.622964   -0.027687
 C        -12.607798   -1.141845   -0.018014
 C        -12.049289    0.237546   -0.013617
 C        -12.827248    1.395762   -0.018001
 C        -12.303976    2.721847   -0.011778
 N        -11.924496    3.825289   -0.006643
 C        -14.252780    1.384117   -0.028593
 N        -15.418395    1.426287   -0.037201
 H        -10.130990    2.165579   -0.002598
 H        -10.888851   -4.123863   -0.004855
 F        -13.298473   -5.213998   -0.022418
 F        -15.351289   -3.503049   -0.038029
 H        -14.797495   -0.989664   -0.034306
 C          9.689346   -1.177739   -0.002710
 C         10.602168   -0.122715    0.002804
 C         10.262095    1.316365   -0.001201
 O          9.144642    1.824782   -0.009675
 C         11.542323    2.059422    0.007491
 C         11.726442    3.434842    0.007324
 C         13.034577    3.899774    0.016739
 C         14.107837    3.001756    0.025988
 C         13.921017    1.623122    0.026106
 C         12.607746    1.141954    0.016597
 C         12.049282   -0.237458    0.013418
 C         12.827294   -1.395641    0.019036
 C         12.304099   -2.721760    0.013981
 N         11.924712   -3.825238    0.009856
 C         14.252822   -1.383909    0.029845
 N         15.418440   -1.425998    0.038674
 H         10.131024   -2.165567    0.003903
 H         10.888712    4.123905    0.000161
 F         13.298296    5.214133    0.017168
 F         15.351161    3.503260    0.034944
 H         14.797443    0.989855    0.033549
 C         -7.164717    6.279738    0.075514
 H         -6.688092    6.704734    0.966955
 H         -6.679369    6.725407   -0.801066
 C          7.164823   -6.279852   -0.070281
 H          6.679508   -6.724687    0.806741
 H          6.688183   -6.705714   -0.961300
 C         -0.536331    2.520840   -1.490277
 H          0.441894    3.005209   -1.580074
 H         -1.305325    3.297874   -1.557244
 C         -0.474834    2.750155    1.037460
 H         -1.243561    3.529460    1.001661
 H          0.504241    3.238924    0.990396
 C          0.536272   -2.520958    1.490220
 H          1.305268   -3.297988    1.557210
 H         -0.441953   -3.005336    1.579964
 C          0.474887   -2.750230   -1.037525
 H          1.243612   -3.529536   -1.001703
 H         -0.504191   -3.238998   -0.990514
 H         -8.215793    6.581483    0.073781
 H          8.215905   -6.581576   -0.068286
 H         -0.661888    1.839343   -2.337357
 H         -0.555073    2.232423    1.998327
 H          0.661786   -1.839475    2.337317
 H          0.555171   -2.232480   -1.998379
       106
S1: Total Energy = -4667.09530679
 C         -0.664403    1.734765   -0.338183
 C         -1.979659    0.984220   -0.085470
 C         -3.263235    1.473604   -0.112857
 C         -4.367307    0.607010    0.139983
 C         -4.095966   -0.767456    0.413073
 C         -2.810556   -1.267123    0.445913
 C         -1.726983   -0.397082    0.196932
 C         -0.319152   -0.597947    0.151574
 H         -3.438005    2.514830   -0.360121
 H         -4.921518   -1.439850    0.622805
 H         -2.643786   -2.316662    0.666008
 C          0.664405   -1.734776    0.338053
 C          1.979661   -0.984230    0.085344
 C          3.263238   -1.473613    0.112737
 C          4.367309   -0.607016   -0.140091
 C          4.095969    0.767451   -0.413179
 C          2.810558    1.267116   -0.446029
 C          1.726985    0.397072   -0.197057
 C          0.319154    0.597936   -0.151704
 H          3.438009   -2.514839    0.360001
 H          4.921521    1.439846   -0.622904
 H          2.643788    2.316654   -0.666124
 C         -8.283600    1.261081    0.060083
 C         -7.617696    2.516742    0.077333
 C         -8.076987    3.872913    0.094523
 C         -7.059664    4.780497    0.140383
 S         -5.468172    3.998326    0.166991
 C         -6.206823    2.409302    0.102333
 C         -5.719743    1.096980    0.115452
 S         -7.082269   -0.033053    0.083793
 H         -9.119894    4.171733    0.078104
 C          8.283603   -1.261081   -0.060135
 C          7.617701   -2.516742   -0.077442
 C          8.076995   -3.872912   -0.094672
 C          7.059674   -4.780497   -0.140579
 S          5.468181   -3.998327   -0.167187
 C          6.206828   -2.409305   -0.102462
 C          5.719746   -1.096983   -0.115550
 S          7.082269    0.033052   -0.083832
 H          9.119902   -4.171731   -0.078248
 C         -9.688659    1.175928    0.021590
 C        -10.598853    0.124129    0.001411
 C        -10.258201   -1.314422    0.019305
 O         -9.140458   -1.822215    0.052213
 C        -11.537448   -2.057656   -0.010525
 C        -11.721103   -3.432819   -0.006382
 C        -13.028904   -3.898838   -0.039315
 C        -14.102201   -3.001200   -0.075071
 C        -13.916661   -1.622619   -0.079203
 C        -12.603449   -1.139282   -0.045997
 C        -12.048809    0.237921   -0.039177
 C        -12.826236    1.397523   -0.067712
 C        -12.301922    2.722490   -0.059760
 N        -11.919372    3.825377   -0.053875
 C        -14.250733    1.386609   -0.107584
 N        -15.416353    1.428227   -0.140297
 H        -10.129131    2.164436    0.003300
 H        -10.883322   -4.121340    0.021317
 F        -13.291866   -5.213612   -0.037575
 F        -15.344825   -3.504037   -0.105983
 H        -14.792975   -0.989767   -0.107647
 C          9.688661   -1.175926   -0.021605
 C         10.598852   -0.124125   -0.001364
 C         10.258197    1.314426   -0.019213
 O          9.140455    1.822218   -0.052143
 C         11.537442    2.057661    0.010689
 C         11.721095    3.432824    0.006606
 C         13.028894    3.898845    0.039603
 C         14.102191    3.001207    0.075363
 C         13.916653    1.622626    0.079434
 C         12.603443    1.139287    0.046163
 C         12.048807   -0.237916    0.039270
 C         12.826235   -1.397518    0.067785
 C         12.301924   -2.722485    0.059754
 N         11.919374   -3.825371    0.053831
 C         14.250731   -1.386602    0.107717
 N         15.416349   -1.428219    0.140476
 H         10.129134   -2.164433   -0.003335
 H         10.883313    4.121345   -0.021096
 F         13.291852    5.213619    0.037925
 F         15.344813    3.504046    0.106338
 H         14.792967    0.989775    0.107885
 C         -7.151877    6.273876    0.168987
 H         -6.683174    6.689862    1.068894
 H         -6.654897    6.724639   -0.698550
 C          7.151890   -6.273874   -0.169225
 H          6.654932   -6.724661    0.698314
 H          6.683166   -6.689839   -1.069131
 C         -0.609676    2.310177   -1.773182
 H          0.359342    2.784163   -1.961863
 H         -1.388107    3.068501   -1.908215
 C         -0.446980    2.859076    0.701690
 H         -1.220889    3.626820    0.597394
 H          0.526471    3.338270    0.553323
 C          0.609675   -2.310191    1.773050
 H          1.388105   -3.068516    1.908083
 H         -0.359343   -2.784178    1.961728
 C          0.446985   -2.859085   -0.701824
 H          1.220894   -3.626828   -0.597528
 H         -0.526467   -3.338280   -0.553459
 H         -8.201735    6.579623    0.158020
 H          8.201749   -6.579619   -0.158291
 H         -0.761067    1.525650   -2.521002
 H         -0.486298    2.467918    1.723015
 H          0.761064   -1.525667    2.520873
 H          0.486304   -2.467924   -1.723147
