       117
S0: Total Energy = -7525.20153780
 C          6.618669   -0.552228   -0.817137
 C          6.478790   -1.939589   -0.663713
 C          5.122826   -2.293459   -0.494472
 C          4.219843   -1.222793   -0.503695
 C          2.888429   -1.660076   -0.319899
 C          2.790218   -3.047023   -0.178726
 C          1.424213   -3.365235   -0.047833
 C          0.723987   -4.612430    0.002708
 C         -0.724110   -4.612383   -0.002780
 S          5.043726    0.280938   -0.739305
 S          4.334776   -3.861788   -0.260712
 C         -6.618550   -0.551797    0.816807
 C         -6.478744   -1.939172    0.663449
 C         -5.122804   -2.293116    0.494175
 C         -4.219765   -1.222499    0.503315
 C         -2.888376   -1.659865    0.319524
 C         -2.790243   -3.046829    0.178472
 C         -1.424253   -3.365137    0.047652
 C         -0.712886   -2.130420    0.077764
 C          0.712920   -2.130473   -0.078046
 S         -5.043561    0.281284    0.738916
 S         -4.334841   -3.861508    0.260550
 N         -1.625609   -1.096461    0.273255
 N          1.625702   -1.096596   -0.273661
 N          1.263570   -5.825833    0.004796
 N         -1.263775   -5.825749   -0.004782
 C          1.370023    0.260283   -0.755414
 H          2.142793    0.522152   -1.481667
 H          0.409011    0.295156   -1.268090
 H          1.385315    0.993737    0.055326
 C         -1.369852    0.260421    0.754979
 H         -1.385034    0.993847   -0.055788
 H         -2.142653    0.522379    1.481166
 H         -0.408869    0.295240    1.267714
 C         -7.575836   -2.968692    0.708555
 H         -8.390400   -2.670834    1.373321
 H         -8.005607   -3.143214   -0.285254
 H         -7.180054   -3.924472    1.067216
 C          7.575847   -2.969149   -0.708719
 H          8.390393   -2.671401   -1.373558
 H          8.005646   -3.143548    0.285098
 H          7.180027   -3.924970   -1.067227
 S         -0.000139   -6.902978    0.000054
 C         -7.824674    0.222387    0.924659
 C         -8.060621    1.472009    1.539441
 S         -9.283071   -0.332772    0.129251
 C         -9.388252    1.932031    1.353795
 C         -7.336662    2.384271    2.376247
 C        -10.232653    1.076671    0.622113
 S         -9.687815    3.467085    2.127713
 C         -8.046297    3.473597    2.792980
 F         -6.051279    2.189548    2.702390
 C         -7.622854    4.698286    3.516675
 O         -8.092937    5.779690    3.222254
 O         -6.700841    4.621331    4.494389
 C         -6.453392    3.423705    5.256944
 H         -7.283894    2.719157    5.173554
 H         -5.527769    2.955211    4.921265
 H         -6.351299    3.748484    6.293688
 C          7.824820    0.221926   -0.924989
 C          8.060793    1.471482   -1.539895
 S          9.283161   -0.333097   -0.129383
 C          9.388382    1.931585   -1.354156
 C          7.336897    2.383590   -2.376930
 C         10.232741    1.076336   -0.622301
 S          9.687957    3.466570   -2.128213
 C          8.046528    3.472907   -2.793697
 F          6.051579    2.188739   -2.703254
 C          7.623083    4.697486   -3.517572
 O          8.093204    5.778926   -3.223354
 O          6.701053    4.620367   -4.495255
 C          6.453840    3.422733   -5.257870
 H          7.284246    2.718121   -5.174094
 H          5.528039    2.954340   -4.922541
 H          6.352206    3.747459   -6.294677
 C        -11.590863    1.376656    0.382967
 C        -12.616653    0.726960   -0.280390
 H        -11.855932    2.331670    0.823599
 C        -12.499134   -0.565512   -0.986138
 C        -13.996598    1.190670   -0.424187
 O        -11.500487   -1.271379   -1.095968
 C        -13.829774   -0.864239   -1.557425
 C        -14.721283    0.171959   -1.228818
 C        -14.575085    2.346063    0.077345
 C        -14.200729   -1.973199   -2.306948
 C        -16.047799    0.097688   -1.669589
 C        -15.944836    2.693670   -0.128193
 C        -13.883064    3.321636    0.856688
 C        -15.517729   -2.034698   -2.737147
 H        -13.496062   -2.761321   -2.549318
 C        -16.420733   -1.011101   -2.419228
 H        -16.797253    0.849251   -1.463231
 N        -17.054830    3.019510   -0.268626
 N        -13.358982    4.142880    1.496895
 F        -15.956979   -3.069563   -3.463803
 F        -17.680087   -1.122580   -2.861272
 C         11.590902    1.376423   -0.383010
 C         12.616602    0.726926    0.280683
 H         11.855998    2.331357   -0.823803
 C         12.499009   -0.565378    0.986720
 C         13.996503    1.190723    0.424604
 O         11.500388   -1.271293    1.096490
 C         13.829552   -0.863900    1.558342
 C         14.721072    0.172267    1.229664
 C         14.575057    2.345977   -0.077172
 C         14.200402   -1.972630    2.308256
 C         16.047486    0.098207    1.670775
 C         15.944764    2.693673    0.128513
 C         13.883163    3.321281   -0.856961
 C         15.517303   -2.033923    2.738790
 H         13.495727   -2.760730    2.550676
 C         16.420312   -1.010349    2.420813
 H         16.796941    0.849759    1.464386
 N         17.054728    3.019568    0.269057
 N         13.359184    4.142304   -1.497536
 F         15.956445   -3.068556    3.465841
 F         17.679566   -1.121616    2.863197
       117
T1: Total Energy = -7525.16123443
 C          6.630990    0.442790    0.663252
 C          6.467214    1.850448    0.530098
 C          5.118686    2.187350    0.385024
 C          4.212475    1.107412    0.406100
 C          2.888057    1.534798    0.262678
 C          2.777270    2.937628    0.133084
 C          1.423547    3.249875    0.037951
 C          0.722118    4.500218   -0.006314
 C         -0.722103    4.500222    0.006196
 S          5.052246   -0.397937    0.613681
 S          4.319808    3.759952    0.181519
 C         -6.630998    0.442821   -0.663331
 C         -6.467216    1.850477   -0.530196
 C         -5.118684    2.187375   -0.385128
 C         -4.212480    1.107433   -0.406195
 C         -2.888059    1.534813   -0.262774
 C         -2.777264    2.937643   -0.133194
 C         -1.423540    3.249883   -0.038058
 C         -0.703816    2.002149   -0.071870
 C          0.703816    2.002146    0.071774
 S         -5.052259   -0.397913   -0.613762
 S         -4.319799    3.759975   -0.181638
 N         -1.629253    0.968471   -0.240680
 N          1.629247    0.968463    0.240592
 N          1.262793    5.710989   -0.012209
 N         -1.262771    5.710997    0.012080
 C          1.387423   -0.390603    0.726726
 H          2.177180   -0.651908    1.434368
 H          0.438799   -0.426683    1.261863
 H          1.384703   -1.121334   -0.086274
 C         -1.387437   -0.390603   -0.726791
 H         -1.384728   -1.121322    0.086219
 H         -2.177190   -0.651913   -1.434436
 H         -0.438808   -0.426699   -1.261921
 C         -7.552913    2.891906   -0.578245
 H         -8.280969    2.684043   -1.367536
 H         -8.101478    2.958452    0.368577
 H         -7.120831    3.877632   -0.776354
 C          7.552917    2.891871    0.578137
 H          8.280954    2.684029    1.367450
 H          8.101501    2.958386   -0.368675
 H          7.120836    3.877606    0.776208
 S          0.000014    6.790582   -0.000071
 C         -7.835256   -0.305239   -0.743991
 C         -8.077330   -1.654389   -1.135413
 S         -9.356452    0.416444   -0.185903
 C         -9.423223   -2.041980   -0.961228
 C         -7.342481   -2.732024   -1.724249
 C        -10.299029   -1.049503   -0.462230
 S         -9.736058   -3.688692   -1.440430
 C         -8.065735   -3.868437   -1.969080
 F         -6.031451   -2.651604   -2.000598
 C         -7.633438   -5.218235   -2.411947
 O         -8.138658   -6.215163   -1.935238
 O         -6.662120   -5.344878   -3.335828
 C         -6.357866   -4.325298   -4.307650
 H         -7.175658   -3.607478   -4.402890
 H         -5.437315   -3.811374   -4.029099
 H         -6.219146   -4.849594   -5.254599
 C          7.835243   -0.305271    0.743936
 C          8.077308   -1.654429    1.135343
 S          9.356456    0.416420    0.185894
 C          9.423204   -2.042016    0.961185
 C          7.342448   -2.732070    1.724151
 C         10.299025   -1.049532    0.462225
 S          9.736028   -3.688736    1.440366
 C          8.065700   -3.868484    1.968996
 F          6.031409   -2.651662    2.000457
 C          7.633399   -5.218288    2.411843
 O          8.138481   -6.215209    1.934972
 O          6.662008   -5.344957    3.335645
 C          6.357729   -4.325457    4.307542
 H          7.175570   -3.607715    4.402952
 H          5.437250   -3.811426    4.028950
 H          6.218863   -4.849848    5.254417
 C        -11.673451   -1.284524   -0.269059
 C        -12.727933   -0.504012    0.195512
 H        -11.937371   -2.298784   -0.546445
 C        -12.618871    0.889613    0.677060
 C        -14.120363   -0.907900    0.318115
 O        -11.610885    1.589586    0.727001
 C        -13.972119    1.303636    1.106224
 C        -14.867759    0.239857    0.898971
 C        -14.704229   -2.120688   -0.037122
 C        -14.357846    2.527380    1.635901
 C        -16.214421    0.406967    1.238760
 C        -16.091456   -2.404301    0.134766
 C        -14.001132   -3.216305   -0.619031
 C        -15.696514    2.680380    1.968857
 H        -13.649070    3.334521    1.786672
 C        -16.602878    1.631981    1.770688
 H        -16.969248   -0.357113    1.114220
 N        -17.217417   -2.682282    0.256167
 N        -13.472231   -4.138614   -1.098917
 F        -16.150272    3.830327    2.486094
 F        -17.883809    1.832222    2.110234
 C         11.673455   -1.284546    0.269105
 C         12.727951   -0.504025   -0.195424
 H         11.937370   -2.298804    0.546498
 C         12.618898    0.889597   -0.676982
 C         14.120390   -0.907898   -0.317959
 O         11.610905    1.589555   -0.726986
 C         13.972164    1.303638   -1.106070
 C         14.867806    0.239871   -0.898766
 C         14.704247   -2.120690    0.037283
 C         14.357905    2.527387   -1.635725
 C         16.214486    0.406999   -1.238476
 C         16.091487   -2.404286   -0.134530
 C         14.001127   -3.216331    0.619121
 C         15.696591    2.680406   -1.968603
 H         13.649127    3.334518   -1.786538
 C         16.602958    1.632019   -1.770379
 H         16.969315   -0.357070   -1.113892
 N         17.217458   -2.682252   -0.255871
 N         13.472212   -4.138650    1.098971
 F         16.150363    3.830359   -2.485813
 F         17.883906    1.832278   -2.109848
       117
S1: Total Energy = -7525.14916590
 C          6.597689    0.570075    0.872142
 C          6.452012    1.962810    0.730918
 C          5.101063    2.305702    0.536554
 C          4.199605    1.227218    0.528696
 C          2.876003    1.657950    0.346811
 C          2.771609    3.060976    0.214704
 C          1.421637    3.373854    0.082538
 C          0.721611    4.623838    0.016739
 C         -0.721604    4.623838   -0.016605
 S          5.035643   -0.277487    0.755008
 S          4.314302    3.878876    0.310431
 C         -6.597673    0.570074   -0.872011
 C         -6.451995    1.962812   -0.730828
 C         -5.101052    2.305701   -0.536405
 C         -4.199603    1.227210   -0.528454
 C         -2.876003    1.657942   -0.346543
 C         -2.771606    3.060974   -0.214507
 C         -1.421633    3.373853   -0.082339
 C         -0.699850    2.124364   -0.094011
 C          0.699850    2.124368    0.094287
 S         -5.035643   -0.277497   -0.754753
 S         -4.314288    3.878881   -0.310338
 N         -1.621441    1.091156   -0.289629
 N          1.621437    1.091166    0.289948
 N          1.262231    5.834601    0.027878
 N         -1.262222    5.834603   -0.027792
 C          1.368908   -0.271708    0.761451
 H          2.145818   -0.538073    1.481017
 H          0.410923   -0.310434    1.279287
 H          1.381423   -0.995504   -0.057272
 C         -1.368914   -0.271750   -0.761039
 H         -1.381439   -0.995490    0.057734
 H         -2.145820   -0.538162   -1.480593
 H         -0.410926   -0.310519   -1.278864
 C         -7.547785    2.991062   -0.819034
 H         -8.337234    2.683147   -1.508978
 H         -8.012891    3.174167    0.157015
 H         -7.143335    3.944612   -1.174397
 C          7.547814    2.991056    0.819032
 H          8.337294    2.683163    1.508950
 H          8.012873    3.174122   -0.157046
 H          7.143389    3.944623    1.174380
 S          0.000006    6.913849    0.000019
 C         -7.807376   -0.194705   -0.993946
 C         -8.045297   -1.443216   -1.607623
 S         -9.270643    0.356302   -0.185646
 C         -9.367980   -1.909779   -1.409721
 C         -7.326464   -2.353432   -2.447421
 C        -10.210955   -1.062195   -0.664478
 S         -9.669110   -3.449065   -2.179910
 C         -8.035144   -3.448929   -2.855311
 F         -6.043427   -2.152284   -2.785780
 C         -7.605366   -4.669311   -3.583084
 O         -8.051269   -5.758132   -3.279278
 O         -6.700771   -4.578775   -4.576698
 C         -6.484954   -3.377568   -5.342695
 H         -7.324294   -2.685537   -5.244533
 H         -5.560996   -2.894908   -5.022585
 H         -6.395782   -3.700058   -6.381382
 C          7.807395   -0.194709    0.994020
 C          8.045342   -1.443232    1.607668
 S          9.270633    0.356314    0.185678
 C          9.368022   -1.909785    1.409716
 C          7.326538   -2.353472    2.447463
 C         10.210969   -1.062183    0.664463
 S          9.669181   -3.449089    2.179855
 C          8.035235   -3.448978    2.855304
 F          6.043513   -2.152336    2.785870
 C          7.605478   -4.669388    3.583042
 O          8.051444   -5.758185    3.279243
 O          6.700841   -4.578901    4.576625
 C          6.485071   -3.377766    5.342750
 H          7.324365   -2.685687    5.244539
 H          5.561051   -2.895126    5.022790
 H          6.396043   -3.700338    6.381425
 C        -11.564430   -1.378280   -0.405284
 C        -12.585610   -0.739633    0.281872
 H        -11.829342   -2.331554   -0.849035
 C        -12.464118    0.550986    0.994170
 C        -13.955183   -1.211084    0.448635
 O        -11.469124    1.265266    1.086452
 C        -13.784015    0.836066    1.595499
 C        -14.672022   -0.207592    1.275687
 C        -14.537257   -2.371834   -0.055639
 C        -14.148946    1.935170    2.360499
 C        -15.989327   -0.147619    1.745308
 C        -15.896905   -2.732942    0.177046
 C        -13.857840   -3.331150   -0.861969
 C        -15.458087    1.981939    2.819791
 H        -13.446420    2.727927    2.594130
 C        -16.356277    0.952820    2.512363
 H        -16.736257   -0.904283    1.548498
 N        -17.001765   -3.069346    0.340335
 N        -13.345658   -4.142753   -1.525654
 F        -15.890434    3.008824    3.564858
 F        -17.608294    1.047471    2.981450
 C         11.564442   -1.378249    0.405232
 C         12.585587   -0.739596   -0.281968
 H         11.829384   -2.331512    0.848987
 C         12.464046    0.551002   -0.994296
 C         13.955166   -1.211021   -0.448764
 O         11.469040    1.265269   -1.086548
 C         13.783907    0.836079   -1.595703
 C         14.671947   -0.207552   -1.275895
 C         14.537288   -2.371731    0.055543
 C         14.148780    1.935155   -2.360770
 C         15.989227   -0.147577   -1.745584
 C         15.896928   -2.732832   -0.177203
 C         13.857935   -3.331006    0.861976
 C         15.457895    1.981925   -2.820134
 H         13.446229    2.727891   -2.594397
 C         16.356119    0.952834   -2.512707
 H         16.736181   -0.904220   -1.548781
 N         17.001781   -3.069231   -0.340545
 N         13.345814   -4.142557    1.525772
 F         15.890186    3.008783   -3.565269
 F         17.608109    1.047487   -2.981865
