        98
S0: Total Energy = -2973.09663020
 O         -0.918577    4.524658    2.999682
 O         -5.224815    6.046215    2.933080
 C         -2.083398    4.353706    2.658070
 C         -2.519839    3.145945    1.914393
 C         -1.603664    2.153984    1.648448
 H         -0.599111    2.271483    2.038109
 C         -1.942471    0.981570    0.928907
 C         -3.259438    0.845316    0.419487
 C         -5.645968    1.595987    0.535144
 C         -4.256650    1.797888    0.817612
 C         -3.873625    2.968239    1.537738
 C         -4.832908    3.941960    1.895342
 C         -4.429022    5.167480    2.620950
 C         -6.563026    2.583481    0.905467
 H         -7.613881    2.463365    0.671064
 C         -6.165516    3.747901    1.567226
 H         -6.891580    4.505681    1.840314
 O         -8.453196   -3.420348   -2.507587
 O         -4.093381   -4.224562   -3.611272
 C         -7.273841   -3.100187   -2.407456
 C         -6.838488   -1.929988   -1.609427
 C         -7.791103   -1.143396   -0.980455
 H         -8.837741   -1.411706   -1.072727
 C         -7.409315   -0.006210   -0.262195
 H         -8.186870    0.594651    0.194186
 C         -6.066933    0.357425   -0.126784
 C         -3.667575   -0.214355   -0.514596
 C         -5.064251   -0.485550   -0.693432
 C         -5.466687   -1.603263   -1.485463
 C         -4.496160   -2.375537   -2.169486
 C         -4.899653   -3.535473   -2.995488
 C         -2.756511   -0.950339   -1.280873
 H         -1.707054   -0.688669   -1.271391
 C         -3.162184   -2.016607   -2.093638
 H         -2.432620   -2.579043   -2.666176
 N         -3.074183    5.300343    2.949939
 N         -6.265783   -3.832902   -3.052317
 C         -2.694531    6.522335    3.669293
 H         -2.986920    7.397337    3.085143
 H         -3.206678    6.560594    4.633817
 H         -1.617447    6.501970    3.814559
 C         -6.646917   -4.995679   -3.862847
 H         -7.726735   -5.104284   -3.800953
 H         -6.337910   -4.841940   -4.899417
 H         -6.150352   -5.890530   -3.480925
 C         -0.931032   -0.079124    0.847615
 C          0.407580    0.119006    0.820729
 H         -1.311201   -1.097482    0.834555
 H          0.784892    1.135066    0.737503
 C          1.422941   -0.935245    0.921220
 C          1.107244   -2.094071    1.671173
 C          2.729746   -0.804153    0.385153
 C          2.028605   -3.090510    1.907119
 H          0.115756   -2.207018    2.094317
 C          3.117661    0.215110   -0.596360
 C          3.738658   -1.742719    0.773112
 C          1.612134   -4.299561    2.659750
 C          3.368340   -2.923851    1.479892
 C          4.508278    0.522430   -0.766747
 C          2.188817    0.878794   -1.407244
 C          5.122600   -1.529336    0.462298
 O          0.465028   -4.454497    3.063463
 N          2.600227   -5.267727    2.885405
 C          4.324479   -3.927416    1.755254
 C          5.530873   -0.247253   -0.124887
 C          4.870802    1.618663   -1.602243
 H          1.147337    0.586260   -1.381266
 C          2.566683    1.905179   -2.279789
 C          6.023850   -2.573795    0.700472
 C          3.934685   -5.161703    2.472909
 C          2.236972   -6.492971    3.607745
 C          5.631968   -3.760484    1.329651
 C          6.863065    0.231908   -0.135182
 C          6.226571    2.017095   -1.680971
 C          3.889826    2.306850   -2.352894
 H          1.827643    2.406644   -2.894996
 H          7.052579   -2.478866    0.379518
 O          4.724703   -6.067960    2.712692
 H          1.182537   -6.427846    3.863770
 H          2.423055   -7.363660    2.974900
 H          2.844055   -6.583253    4.511381
 H          6.349697   -4.554483    1.504702
 C          7.175345    1.363145   -0.923537
 C          7.934567   -0.330421    0.709964
 C          6.636683    3.164273   -2.527131
 C          4.269929    3.433693   -3.234198
 H          8.190331    1.743318   -0.931786
 C          9.239652   -0.349367    0.405789
 H          7.619860   -0.727965    1.673025
 O          7.799886    3.545332   -2.593403
 N          5.621705    3.797198   -3.259549
 O          3.456851    4.042419   -3.921108
 H          9.970290   -0.728029    1.113953
 H          9.622491   -0.008713   -0.552519
 C          5.976412    4.927577   -4.126149
 H          5.718222    4.695128   -5.161899
 H          5.420194    5.816411   -3.819935
 H          7.045846    5.096869   -4.030266
        98
T1: Total Energy = -2973.05450257
 O          0.191995    4.818359   -1.932227
 O          4.340909    6.542279   -2.761783
 C          1.410527    4.685060   -1.884645
 C          2.050915    3.459491   -1.348074
 C          1.256131    2.408702   -0.967204
 H          0.188112    2.509243   -1.120248
 C          1.796760    1.188146   -0.476284
 C          3.221081    1.123544   -0.220672
 C          5.486014    2.032360   -0.757495
 C          4.060480    2.153331   -0.756105
 C          3.472423    3.334474   -1.303537
 C          4.277387    4.372384   -1.794252
 C          3.670794    5.609141   -2.332409
 C          6.258160    3.094788   -1.271839
 H          7.339489    3.031669   -1.259579
 C          5.671054    4.244601   -1.773542
 H          6.275960    5.060008   -2.153982
 O          9.099614   -2.842030    1.547929
 O          5.065703   -3.969706    3.380182
 C          7.902432   -2.600435    1.672830
 C          7.260219   -1.441816    1.015064
 C          8.039000   -0.571853    0.253751
 H          9.099016   -0.775493    0.150718
 C          7.469049    0.546793   -0.342340
 H          8.109675    1.208945   -0.912180
 C          6.092161    0.823731   -0.224879
 C          3.844204    0.084121    0.567272
 C          5.266689   -0.093723    0.487089
 C          5.872540   -1.205324    1.150640
 C          5.089747   -2.062317    1.962404
 C          5.704631   -3.210601    2.656332
 C          3.127246   -0.742138    1.466393
 H          2.083767   -0.534799    1.666438
 C          3.735252   -1.792156    2.144013
 H          3.165060   -2.414945    2.824451
 N          2.272264    5.691407   -2.337272
 N          7.074174   -3.417705    2.456013
 C          1.693686    6.929709   -2.872944
 H          2.051063    7.784188   -2.293999
 H          1.999672    7.061643   -3.913336
 H          0.611952    6.848405   -2.803103
 C          7.664667   -4.575595    3.137253
 H          8.718035   -4.615400    2.871867
 H          7.547906   -4.469444    4.218421
 H          7.155421   -5.488627    2.820745
 C          0.956013    0.033717   -0.391610
 C         -0.429267    0.034567   -0.358732
 H          1.464644   -0.923665   -0.369157
 H         -0.935199    0.990399   -0.279459
 C         -1.273408   -1.115984   -0.433268
 C         -0.759790   -2.339057   -0.941736
 C         -2.692063   -1.043210   -0.134007
 C         -1.575462   -3.392410   -1.271822
 H          0.300474   -2.447966   -1.137015
 C         -3.284726   -0.027896    0.697881
 C         -3.557194   -2.061129   -0.640185
 C         -0.962276   -4.632263   -1.806422
 C         -2.994331   -3.263981   -1.166565
 C         -4.703864    0.186819    0.630385
 C         -2.535352    0.741118    1.625593
 C         -4.983259   -1.919317   -0.601062
 O          0.252223   -4.763597   -1.921668
 N         -1.843967   -5.655986   -2.173874
 C         -3.819843   -4.326031   -1.558994
 C         -5.553270   -0.665019   -0.140177
 C         -5.266739    1.281416    1.354448
 H         -1.491636    0.504523    1.789861
 C         -3.111654    1.757733    2.370486
 C         -5.774006   -3.036621   -0.961725
 C         -3.239820   -5.581212   -2.081629
 C         -1.291614   -6.909790   -2.700910
 C         -5.209673   -4.212077   -1.426462
 C         -6.912573   -0.270491   -0.363126
 C         -6.642568    1.578495    1.211206
 C         -4.465190    2.063794    2.215385
 H         -2.524122    2.328627    3.080797
 H         -6.847946   -2.990109   -0.841402
 O         -3.929066   -6.534702   -2.428925
 H         -0.208683   -6.816416   -2.713728
 H         -1.595391   -7.743759   -2.064166
 H         -1.671531   -7.085820   -3.709828
 H         -5.830713   -5.061287   -1.688706
 C         -7.419017    0.838121    0.332946
 C         -7.774205   -0.905508   -1.375219
 C         -7.257253    2.711245    1.938792
 C         -5.052025    3.180963    2.980057
 H         -8.441795    1.155283    0.165456
 C         -9.110825   -1.004104   -1.312512
 H         -7.266983   -1.292639   -2.256663
 O         -8.443560    3.002057    1.815393
 N         -6.414507    3.440409    2.789116
 O         -4.396380    3.872240    3.755231
 H         -9.675686   -1.435365   -2.133185
 H         -9.681067   -0.678548   -0.446687
 C         -6.976469    4.565018    3.546140
 H         -6.857123    4.386586    4.617324
 H         -6.449056    5.485689    3.286290
 H         -8.029721    4.645048    3.289256
        98
S1: Total Energy = -2973.03168574
 O          0.426015    4.786815   -2.264241
 O          4.663936    6.415322   -2.801858
 C          1.636019    4.627547   -2.118903
 C          2.205851    3.403703   -1.516129
 C          1.360547    2.370459   -1.175102
 H          0.309980    2.482063   -1.417288
 C          1.837984    1.163484   -0.613188
 C          3.235783    1.060833   -0.273778
 C          5.555218    1.898688   -0.667484
 C          4.133900    2.060065   -0.761836
 C          3.612804    3.248327   -1.364766
 C          4.480223    4.262152   -1.810265
 C          3.946075    5.499408   -2.408428
 C          6.385822    2.937111   -1.132355
 H          7.461851    2.848348   -1.043233
 C          5.863163    4.097374   -1.684571
 H          6.515414    4.892904   -2.027686
 O          8.867837   -3.083146    1.863421
 O          4.693014   -4.076573    3.445895
 C          7.672513   -2.798953    1.910575
 C          7.110140   -1.626627    1.214189
 C          7.959282   -0.781902    0.498551
 H          9.016802   -1.018997    0.459219
 C          7.462244    0.351984   -0.132144
 H          8.156025    0.991692   -0.664694
 C          6.089898    0.673054   -0.098482
 C          3.778135    0.006504    0.560940
 C          5.194659   -0.218295    0.563176
 C          5.723809   -1.346524    1.265212
 C          4.864354   -2.173984    2.029212
 C          5.397628   -3.337339    2.760048
 C          2.981103   -0.785971    1.419276
 H          1.937566   -0.536438    1.564602
 C          3.511286   -1.857698    2.129614
 H          2.881571   -2.459253    2.776006
 N          2.552400    5.608687   -2.519115
 N          6.769754   -3.587061    2.643270
 C          2.042876    6.848581   -3.115320
 H          2.376839    7.705877   -2.526463
 H          2.426426    6.956345   -4.132709
 H          0.957330    6.791579   -3.123410
 C          7.280559   -4.759510    3.361555
 H          8.346873   -4.832001    3.162671
 H          7.099456   -4.646887    4.433313
 H          6.764489   -5.658305    3.016027
 C          0.951954    0.027119   -0.543799
 C         -0.423245    0.075592   -0.506549
 H          1.432071   -0.946141   -0.536532
 H         -0.898557    1.046178   -0.412254
 C         -1.305531   -1.057264   -0.592633
 C         -0.840673   -2.265219   -1.176458
 C         -2.696288   -0.970770   -0.218024
 C         -1.688505   -3.302340   -1.479820
 H          0.203343   -2.374265   -1.445367
 C         -3.231614    0.046705    0.663494
 C         -3.602886   -1.965575   -0.689469
 C         -1.126947   -4.535464   -2.088161
 C         -3.091118   -3.163113   -1.274954
 C         -4.646328    0.288187    0.665615
 C         -2.427172    0.781877    1.563768
 C         -5.024096   -1.804138   -0.567497
 O          0.073542   -4.669013   -2.296213
 N         -2.041227   -5.545821   -2.409551
 C         -3.955552   -4.210398   -1.631118
 C         -5.548095   -0.540357   -0.070619
 C         -5.153590    1.382393    1.427843
 H         -1.380858    0.526956    1.674409
 C         -2.949069    1.801999    2.350434
 C         -5.847917   -2.902510   -0.890289
 C         -3.425241   -5.462928   -2.215109
 C         -1.538631   -6.793209   -2.999540
 C         -5.327848   -4.082705   -1.406210
 C         -6.905483   -0.119578   -0.226274
 C         -6.529277    1.708244    1.351341
 C         -4.298723    2.136025    2.260867
 H         -2.316106    2.352278    3.037569
 H         -6.912473   -2.844035   -0.707208
 O         -4.147858   -6.402836   -2.526623
 H         -0.458801   -6.707158   -3.089297
 H         -1.802397   -7.636846   -2.357921
 H         -1.992185   -6.946079   -3.981351
 H         -5.977201   -4.918494   -1.641712
 C         -7.359015    0.993982    0.505610
 C         -7.823807   -0.729926   -1.199813
 C         -7.086782    2.847344    2.119121
 C         -4.828890    3.257450    3.066004
 H         -8.382905    1.330304    0.391113
 C         -9.160397   -0.787102   -1.084382
 H         -7.364004   -1.136549   -2.098101
 O         -8.270309    3.162556    2.050314
 N         -6.191888    3.547991    2.938691
 O         -4.123483    3.922578    3.818091
 H         -9.768609   -1.205446   -1.880247
 H         -9.687160   -0.442120   -0.198939
 C         -6.694849    4.676421    3.732064
 H         -6.527585    4.484402    4.794277
 H         -6.162245    5.588900    3.454746
 H         -7.757319    4.779714    3.526883
