       186
S0: Total Energy = -5940.31456314
 O         -1.762879    4.788544   -0.559068
 O         -6.297084    5.342386   -0.558548
 C         -2.878458    4.281472   -0.555889
 C         -3.076286    2.812043   -0.499718
 C         -1.977146    1.988508   -0.346809
 H         -1.006298    2.459196   -0.249387
 C         -2.091185    0.586396   -0.256235
 C         -3.377187   -0.010261   -0.391592
 C         -5.856587    0.310591   -0.367858
 C         -4.528245    0.842022   -0.438096
 C         -4.367349    2.251538   -0.511591
 C         -5.507584    3.095972   -0.545248
 C         -5.345442    4.571179   -0.562809
 C         -6.989428    1.158525   -0.475988
 C         -6.774280    2.563440   -0.530151
 H         -7.603944    3.256640   -0.495156
 O         -7.825921   -5.817437    0.016189
 O         -3.385219   -6.518392   -0.792645
 C         -6.709322   -5.336148   -0.136958
 C         -6.452804   -3.874934   -0.097169
 C         -7.507164   -3.018824    0.112077
 H         -8.490668   -3.458843    0.210753
 C         -7.335812   -1.605901    0.099360
 C         -6.044109   -1.093573   -0.180122
 C         -3.600680   -1.454782   -0.501453
 C         -4.922813   -1.967157   -0.311505
 C         -5.139244   -3.372366   -0.307599
 C         -4.075479   -4.259871   -0.562733
 C         -4.294861   -5.725712   -0.581748
 C         -2.589195   -2.372069   -0.831555
 H         -1.608820   -2.011799   -1.112095
 C         -2.816247   -3.748822   -0.853900
 H         -2.011851   -4.434333   -1.097074
 N         -4.037497    5.068921   -0.595382
 N         -5.607461   -6.169421   -0.353486
 C         -3.896987    6.530119   -0.640733
 H         -4.430527    6.921982   -1.509050
 H         -4.325569    6.973050    0.261527
 H         -2.836782    6.760670   -0.707013
 C         -5.875514   -7.612930   -0.368541
 H         -6.355279   -7.905321    0.567587
 H         -6.545919   -7.858995   -1.195800
 H         -4.924952   -8.126418   -0.488440
 O         -9.468003    4.289974   -3.799647
 O        -13.965982    5.003734   -3.436445
 C        -10.525957    3.994851   -3.256259
 C        -10.626424    2.951928   -2.205656
 C         -9.484414    2.318581   -1.781071
 H         -8.556199    2.590001   -2.266565
 C         -9.519700    1.292151   -0.793240
 C        -10.787612    0.856330   -0.330917
 C        -13.253678    1.187596   -0.178550
 C        -11.980435    1.544867   -0.717257
 C        -11.893762    2.607042   -1.658574
 C        -13.052122    3.292327   -2.070185
 C        -12.975682    4.379179   -3.074729
 C        -14.381885    1.903856   -0.603848
 H        -15.362174    1.659576   -0.212971
 C        -14.286490    2.935752   -1.535692
 H        -15.171851    3.472434   -1.858101
 O        -14.543952   -3.456150    4.199011
 O        -10.030444   -4.043601    3.803972
 C        -13.490524   -3.123386    3.668790
 C        -13.420479   -2.028621    2.672326
 C        -14.575247   -1.326737    2.339914
 H        -15.511139   -1.604227    2.812145
 C        -14.527974   -0.283999    1.416418
 H        -15.451225    0.233657    1.185368
 C        -13.328628    0.100230    0.799209
 C        -10.876587   -0.269661    0.546323
 C        -12.136038   -0.610835    1.132244
 C        -12.198752   -1.681640    2.065770
 C        -11.007778   -2.383055    2.404027
 C        -11.036103   -3.446417    3.438399
 C         -9.723048   -1.051129    0.808246
 C         -9.817596   -2.078992    1.790307
 H         -8.936634   -2.613939    2.120280
 N        -11.706910    4.656380   -3.608623
 N        -12.281958   -3.761816    3.990419
 C        -11.584825    5.707189   -4.626741
 H        -11.228486    5.275394   -5.565110
 H        -12.566770    6.152664   -4.764156
 H        -10.865882    6.458764   -4.293931
 C        -12.297174   -4.837316    4.989832
 H        -13.328900   -4.993369    5.294329
 H        -11.883829   -5.749199    4.553772
 H        -11.685576   -4.553899    5.849819
 C         -8.322842    0.594327   -0.367536
 C         -8.461831   -0.696173    0.190367
 C         -0.883882   -0.172035    0.108588
 C          0.378943    0.156168   -0.240018
 H         -1.042305   -1.023277    0.766983
 H          0.537293    1.006508   -0.899771
 C          1.587611   -0.602080    0.122754
 C          1.474910   -2.004651    0.188461
 C          2.872613   -0.004144    0.279263
 C          2.577220   -2.829968    0.308697
 H          0.502822   -2.473649    0.095201
 C          3.089760    1.436648    0.433332
 C          4.025451   -0.855362    0.277521
 C          2.382199   -4.299253    0.372748
 C          3.866355   -2.267590    0.295013
 C          4.419779    1.957960    0.340422
 C          2.060094    2.342605    0.743069
 C          5.353443   -0.320082    0.210534
 O          1.267951   -4.809112    0.363912
 N          3.542099   -5.082335    0.457836
 C          5.007263   -3.112603    0.304010
 C          5.553960    1.093619    0.251400
 C          4.626151    3.364367    0.395181
 H          1.071943    1.971291    0.975952
 C          2.273642    3.719510    0.801080
 C          6.471366   -1.180341    0.050490
 C          4.848942   -4.581422    0.442362
 C          3.404122   -6.540722    0.561872
 C          6.267534   -2.582512    0.175217
 C          6.871064    1.623880    0.282222
 C          5.942979    3.881590    0.250104
 C          3.543188    4.242913    0.587096
 H          1.451425    4.395260    1.009605
 C          7.797506   -0.617651   -0.098276
 O          5.802501   -5.345123    0.531174
 H          2.343613   -6.777529    0.532748
 H          3.925711   -7.019808   -0.269497
 H          3.846957   -6.887964    1.498265
 H          7.106803   -3.264685    0.214579
 C          7.023528    3.036529    0.193424
 C          8.007854    0.726608    0.277435
 C          6.165996    5.346471    0.169310
 C          3.746148    5.711144    0.602473
 C          8.919181   -1.362129   -0.637585
 H          7.998604    3.482021    0.046637
 C          9.349243    1.132312    0.659197
 O          7.267618    5.838518   -0.044829
 N          5.052427    6.168933    0.365274
 O          2.824831    6.494393    0.797322
 C          8.734747   -2.466956   -1.515447
 C         10.238455   -0.885459   -0.432440
 C         10.456954    0.316468    0.309689
 C          9.579406    2.245514    1.513924
 C          5.295860    7.616162    0.322454
 C          9.798272   -3.091616   -2.120858
 H          7.742437   -2.798600   -1.791124
 C         11.360292   -1.576124   -0.982775
 C         11.789384    0.675983    0.694368
 C         10.843411    2.575852    1.938131
 H          8.756653    2.826107    1.908651
 H          5.700612    7.893312   -0.653513
 H          4.347594    8.117946    0.497401
 H          6.020958    7.891707    1.091602
 C          9.534908   -4.195498   -3.076684
 C         11.131214   -2.667513   -1.865287
 C         12.700562   -1.158889   -0.703805
 C         12.923154   -0.104357    0.292237
 C         11.968328    1.812142    1.528745
 C         11.014585    3.726175    2.859941
 O          8.404022   -4.581812   -3.348687
 N         10.646814   -4.803635   -3.668412
 C         12.208238   -3.291830   -2.524092
 C         13.735315   -1.761583   -1.438416
 C         14.190660    0.192348    0.864281
 C         13.253643    2.148877    1.992440
 O         10.072068    4.392374    3.271203
 N         12.321120    4.043510    3.246252
 C         11.980455   -4.418002   -3.459711
 C         10.368822   -5.909658   -4.593119
 C         13.496453   -2.810012   -2.327684
 H         14.748100   -1.396512   -1.341899
 C         14.324557    1.329215    1.684535
 C         15.371666   -0.689009    0.748564
 C         13.465585    3.321825    2.875506
 C         12.475081    5.205717    4.130149
 O         12.902435   -4.986921   -4.032465
 H          9.796344   -6.683511   -4.077487
 H          9.781217   -5.547478   -5.440224
 H         11.322047   -6.303926   -4.935919
 H         14.315122   -3.260365   -2.878095
 H         15.287329    1.554083    2.128409
 C         16.643665   -0.275206    0.677385
 H         15.171322   -1.758868    0.768891
 O         14.578083    3.647557    3.272088
 H         12.036316    6.086312    3.656508
 H         11.958951    5.024802    5.076159
 H         13.538079    5.353806    4.302495
 H         17.462092   -0.988491    0.662502
 H         16.911555    0.776353    0.616051
       186
T1: Total Energy = -5940.26676227
 O         -1.689311    4.734029   -1.029973
 O         -6.209000    5.323282   -0.703423
 C         -2.805265    4.237143   -0.925302
 C         -3.008669    2.772716   -0.807375
 C         -1.913049    1.954724   -0.686133
 H         -0.940693    2.431348   -0.660629
 C         -2.035110    0.550965   -0.489784
 C         -3.355568   -0.047745   -0.618969
 C         -5.823149    0.297110   -0.522685
 C         -4.494327    0.815781   -0.624777
 C         -4.319724    2.224130   -0.721667
 C         -5.439151    3.072730   -0.707179
 C         -5.265280    4.543824   -0.761674
 C         -6.955807    1.164169   -0.574767
 C         -6.725666    2.552147   -0.621278
 H         -7.538960    3.261185   -0.546999
 O         -7.821050   -5.816382   -0.243498
 O         -3.409118   -6.518888   -1.211880
 C         -6.705632   -5.336212   -0.418358
 C         -6.439735   -3.880881   -0.348409
 C         -7.487337   -3.020764   -0.080474
 H         -8.468518   -3.460481    0.040693
 C         -7.307464   -1.618293   -0.053272
 C         -6.013738   -1.102892   -0.363671
 C         -3.583025   -1.465115   -0.763283
 C         -4.906765   -1.976946   -0.557150
 C         -5.131404   -3.381604   -0.583917
 C         -4.079352   -4.267569   -0.892252
 C         -4.308164   -5.726389   -0.949011
 C         -2.577635   -2.389395   -1.152979
 H         -1.606663   -2.023880   -1.462577
 C         -2.818065   -3.753399   -1.209112
 H         -2.035156   -4.440692   -1.509526
 N         -3.959198    5.030869   -0.897697
 N         -5.616004   -6.168859   -0.692344
 C         -3.814490    6.489664   -0.987951
 H         -4.404900    6.864700   -1.826370
 H         -4.177040    6.956557   -0.069046
 H         -2.760252    6.710928   -1.133442
 C         -5.893258   -7.609703   -0.738483
 H         -6.344139   -7.925733    0.204406
 H         -6.591973   -7.829327   -1.549643
 H         -4.950220   -8.124554   -0.903648
 O         -9.545360    4.376926   -3.733465
 O        -14.009427    5.145460   -3.136795
 C        -10.580315    4.083956   -3.145971
 C        -10.646512    3.018517   -2.115919
 C         -9.494885    2.363520   -1.757459
 H         -8.585613    2.635856   -2.276962
 C         -9.497777    1.314221   -0.792062
 C        -10.752262    0.878954   -0.285691
 C        -13.205334    1.232344   -0.019314
 C        -11.952311    1.590043   -0.603056
 C        -11.893487    2.675817   -1.519622
 C        -13.058835    3.385547   -1.860365
 C        -13.012857    4.497538   -2.838389
 C        -14.342268    1.975532   -0.373417
 H        -15.307006    1.733797    0.055931
 C        -14.274047    3.030525   -1.279591
 H        -15.164795    3.587853   -1.547507
 O        -14.365824   -3.526207    4.268321
 O         -9.874712   -4.131815    3.687870
 C        -13.330421   -3.185121    3.708289
 C        -13.289480   -2.063179    2.741368
 C        -14.451529   -1.344177    2.472807
 H        -15.370783   -1.629094    2.972459
 C        -14.431378   -0.276681    1.578641
 H        -15.358725    0.252816    1.396174
 C        -13.252221    0.117688    0.927273
 C        -10.815767   -0.263669    0.567491
 C        -12.054208   -0.611549    1.193388
 C        -12.089466   -1.707641    2.098821
 C        -10.891258   -2.426542    2.371991
 C        -10.888737   -3.517797    3.376658
 C         -9.657295   -1.059679    0.765969
 C         -9.722766   -2.113793    1.722107
 H         -8.834028   -2.664585    2.001290
 N        -11.766386    4.771200   -3.424416
 N        -12.115523   -3.840317    3.966238
 C        -11.676770    5.846460   -4.419949
 H        -11.377005    5.434057   -5.386414
 H        -12.655983    6.312319   -4.495125
 H        -10.927860    6.576194   -4.105140
 C        -12.101226   -4.943250    4.935184
 H        -13.122185   -5.102909    5.272401
 H        -11.709014   -5.844498    4.459330
 H        -11.457441   -4.687002    5.780094
 C         -8.293811    0.602260   -0.428397
 C         -8.420037   -0.697743    0.110465
 C         -0.916402   -0.195894   -0.015492
 C          0.410463    0.220410   -0.019180
 H         -1.147805   -1.147819    0.447271
 H          0.640631    1.168769   -0.489708
 C          1.529627   -0.521660    0.461088
 C          1.405170   -1.922282    0.679820
 C          2.853071    0.075282    0.581457
 C          2.500085   -2.742938    0.786274
 H          0.429989   -2.393910    0.688080
 C          3.085437    1.490960    0.732517
 C          3.986852   -0.793164    0.549487
 C          2.297183   -4.201365    0.965500
 C          3.808609   -2.201712    0.643496
 C          4.420120    1.999107    0.590162
 C          2.072071    2.417708    1.097459
 C          5.315549   -0.280163    0.417663
 O          1.181530   -4.693232    1.092097
 N          3.452612   -4.993448    0.989448
 C          4.925132   -3.054690    0.625221
 C          5.535194    1.124347    0.442490
 C          4.642685    3.404365    0.629103
 H          1.094595    2.053740    1.386278
 C          2.307513    3.782239    1.150170
 C          6.416909   -1.166501    0.228200
 C          4.758841   -4.512338    0.836928
 C          3.311154   -6.442736    1.181254
 C          6.199685   -2.546546    0.405102
 C          6.867063    1.642391    0.403055
 C          5.953719    3.905356    0.412359
 C          3.577951    4.294287    0.869730
 H          1.512571    4.470829    1.413845
 C          7.745236   -0.618585    0.000402
 O          5.708279   -5.285677    0.879540
 H          2.250581   -6.664811    1.267300
 H          3.744141   -6.970798    0.328932
 H          3.839992   -6.748682    2.086755
 H          7.024881   -3.246547    0.418459
 C          7.026509    3.044914    0.299175
 C          7.991496    0.726090    0.352250
 C          6.187775    5.365191    0.320636
 C          3.796271    5.756099    0.874615
 C          8.821914   -1.383328   -0.587190
 H          7.996033    3.483912    0.104565
 C          9.355563    1.118483    0.652364
 O          7.283104    5.845977    0.049301
 N          5.094864    6.199384    0.575048
 O          2.892372    6.550362    1.113493
 C          8.574921   -2.504222   -1.430164
 C         10.159079   -0.919915   -0.465576
 C         10.433531    0.286029    0.245817
 C          9.648388    2.237769    1.479311
 C          5.352173    7.643725    0.522372
 C          9.594119   -3.153217   -2.082551
 H          7.564326   -2.829115   -1.639336
 C         11.238606   -1.635320   -1.066609
 C         11.790528    0.636289    0.545332
 C         10.939099    2.560918    1.820330
 H          8.856649    2.830178    1.917356
 H          5.692582    7.922652   -0.477597
 H          4.424136    8.155606    0.764049
 H          6.131852    7.905577    1.241136
 C          9.263494   -4.272294   -2.998719
 C         10.945802   -2.740763   -1.912640
 C         12.597515   -1.230018   -0.873842
 C         12.890010   -0.161450    0.087024
 C         12.030531    1.782062    1.351050
 C         11.176635    3.720034    2.715543
 O          8.114546   -4.650395   -3.197681
 N         10.332698   -4.905837   -3.640194
 C         11.974698   -3.391142   -2.619106
 C         13.581205   -1.860026   -1.656384
 C         14.194083    0.132421    0.575508
 C         13.344385    2.113687    1.728727
 O         10.266854    4.397884    3.178660
 N         12.507440    4.032154    3.013239
 C         11.680471   -4.532776   -3.516160
 C          9.990158   -6.026963   -4.523901
 C         13.278876   -2.921430   -2.508090
 H         14.601689   -1.505226   -1.626824
 C         14.388095    1.279538    1.367108
 C         15.357740   -0.762666    0.403024
 C         13.620635    3.296455    2.579924
 C         12.726121    5.203710    3.870716
 O         12.561247   -5.125124   -4.128830
 H          9.439995   -6.783228   -3.960134
 H          9.358726   -5.675296   -5.343464
 H         10.917840   -6.439472   -4.912314
 H         14.058446   -3.392452   -3.096646
 H         15.377993    1.501678    1.748226
 C         16.625826   -0.362657    0.241134
 H         15.150103   -1.829884    0.459531
 O         14.758623    3.618542    2.900306
 H         12.261045    6.081266    3.416967
 H         12.273714    5.037142    4.851408
 H         13.799018    5.347498    3.969824
 H         17.435949   -1.083670    0.189421
 H         16.897265    0.684850    0.139475
       186
S1: Total Energy = -5940.24998340
 O         -1.694690    4.752127   -0.899818
 O         -6.220964    5.336545   -0.647524
 C         -2.812983    4.254399   -0.824637
 C         -3.017064    2.788637   -0.732813
 C         -1.919995    1.965989   -0.607285
 H         -0.948138    2.441457   -0.552160
 C         -2.045665    0.563315   -0.446119
 C         -3.357407   -0.032389   -0.574050
 C         -5.824997    0.304961   -0.489246
 C         -4.495831    0.827501   -0.585875
 C         -4.322299    2.238317   -0.671774
 C         -5.447749    3.087080   -0.661728
 C         -5.276004    4.557910   -0.698799
 C         -6.957087    1.169055   -0.547686
 C         -6.729059    2.561425   -0.589404
 H         -7.547186    3.265604   -0.516833
 O         -7.814264   -5.814006   -0.170243
 O         -3.396788   -6.509294   -1.117341
 C         -6.700274   -5.330517   -0.343947
 C         -6.438458   -3.874289   -0.283335
 C         -7.486483   -3.015433   -0.029660
 H         -8.468482   -3.453958    0.089762
 C         -7.310484   -1.607985   -0.016034
 C         -6.014544   -1.093085   -0.323686
 C         -3.583441   -1.456951   -0.711327
 C         -4.904948   -1.967895   -0.501418
 C         -5.126892   -3.373621   -0.517475
 C         -4.073954   -4.256739   -0.816806
 C         -4.299462   -5.718424   -0.863240
 C         -2.577400   -2.377317   -1.096456
 H         -1.609519   -2.011336   -1.415263
 C         -2.813430   -3.743803   -1.138189
 H         -2.028886   -4.432192   -1.431683
 N         -3.967514    5.046802   -0.808943
 N         -5.606104   -6.162164   -0.607596
 C         -3.821998    6.506580   -0.879824
 H         -4.404768    6.891477   -1.719027
 H         -4.193206    6.962388    0.041259
 H         -2.766441    6.729728   -1.012396
 C         -5.879268   -7.604188   -0.644298
 H         -6.333285   -7.914319    0.299019
 H         -6.574101   -7.831555   -1.456642
 H         -4.934250   -8.117813   -0.801798
 O         -9.509717    4.355443   -3.755841
 O        -13.986247    5.107670   -3.229794
 C        -10.552210    4.060639   -3.181126
 C        -10.629215    3.002667   -2.146395
 C         -9.480104    2.352036   -1.768532
 H         -8.564697    2.623344   -2.278137
 C         -9.493333    1.310447   -0.797383
 C        -10.754915    0.873403   -0.302810
 C        -13.211899    1.219897   -0.072137
 C        -11.951663    1.578745   -0.640750
 C        -11.883457    2.659449   -1.564560
 C        -13.046377    3.361605   -1.926792
 C        -12.991365    4.465535   -2.911296
 C        -14.347540    1.956801   -0.449039
 H        -15.317482    1.713368   -0.032567
 C        -14.269822    3.004649   -1.360519
 H        -15.158416    3.556729   -1.645945
 O        -14.413848   -3.505173    4.240403
 O         -9.910810   -4.093820    3.730645
 C        -13.372124   -3.163355    3.690935
 C        -13.322284   -2.051926    2.714862
 C        -14.483898   -1.339146    2.422835
 H        -15.408687   -1.623426    2.912648
 C        -14.455708   -0.280129    1.520528
 H        -15.382115    0.244953    1.321134
 C        -13.267975    0.113716    0.880930
 C        -10.825978   -0.261806    0.558042
 C        -12.071226   -0.609034    1.169899
 C        -12.114200   -1.697439    2.085812
 C        -10.917024   -2.407007    2.383914
 C        -10.923409   -3.486990    3.397867
 C         -9.666328   -1.051943    0.782126
 C         -9.738818   -2.092887    1.747374
 H         -8.851058   -2.635362    2.045978
 N        -11.737317    4.740585   -3.481249
 N        -12.157435   -3.809982    3.972472
 C        -11.638242    5.809107   -4.482724
 H        -11.323508    5.391579   -5.442281
 H        -12.618209    6.270431   -4.574528
 H        -10.896489    6.544039   -4.162998
 C        -12.152126   -4.903590    4.951564
 H        -13.177369   -5.065563    5.274446
 H        -11.747746   -5.807164    4.490425
 H        -11.522793   -4.636485    5.804060
 C         -8.292793    0.607716   -0.411203
 C         -8.421629   -0.693297    0.135274
 C         -0.911631   -0.195758    0.008491
 C          0.408714    0.193482   -0.069342
 H         -1.142274   -1.124362    0.518895
 H          0.637652    1.120980   -0.582341
 C          1.542553   -0.560742    0.390539
 C          1.418120   -1.962998    0.564910
 C          2.855315    0.036832    0.521882
 C          2.516406   -2.784224    0.678290
 H          0.444751   -2.437429    0.533437
 C          3.080080    1.458857    0.679053
 C          3.992361   -0.823669    0.498560
 C          2.316228   -4.247107    0.823758
 C          3.819384   -2.235409    0.572810
 C          4.411599    1.972547    0.544103
 C          2.061000    2.375401    1.042140
 C          5.320337   -0.301741    0.382325
 O          1.199147   -4.744621    0.906765
 N          3.474267   -5.033602    0.871045
 C          4.944190   -3.084022    0.567291
 C          5.531647    1.102617    0.405084
 C          4.627243    3.379089    0.589564
 H          1.085523    2.005125    1.329917
 C          2.287984    3.742303    1.095917
 C          6.427614   -1.180649    0.204478
 C          4.781950   -4.544112    0.762242
 C          3.334831   -6.486168    1.039624
 C          6.215628   -2.565496    0.374907
 C          6.862688    1.627819    0.380140
 C          5.940279    3.888293    0.383365
 C          3.558174    4.259932    0.824400
 H          1.487868    4.426705    1.354641
 C          7.753068   -0.627098   -0.008682
 O          5.734611   -5.311913    0.824644
 H          2.273351   -6.714957    1.089144
 H          3.797608   -7.000558    0.194666
 H          3.836536   -6.800866    1.957452
 H          7.046991   -3.258245    0.401013
 C          7.015857    3.035539    0.279243
 C          7.988348    0.722869    0.347394
 C          6.165541    5.349941    0.292661
 C          3.768896    5.725333    0.834375
 C          8.837038   -1.379603   -0.593377
 H          7.985901    3.477202    0.092663
 C          9.348652    1.122322    0.662347
 O          7.258827    5.838094    0.028138
 N          5.065199    6.176909    0.541747
 O          2.858286    6.511699    1.070870
 C          8.603189   -2.498049   -1.441541
 C         10.172900   -0.906998   -0.458781
 C         10.434814    0.297218    0.258522
 C          9.626257    2.237913    1.494075
 C          5.313514    7.623225    0.491955
 C          9.631942   -3.141493   -2.085322
 H          7.596098   -2.826321   -1.662836
 C         11.260401   -1.615542   -1.051029
 C         11.786878    0.654798    0.569254
 C         10.914687    2.571341    1.843219
 H          8.827409    2.822847    1.929761
 H          5.659369    7.904626   -0.505390
 H          4.380527    8.129044    0.727182
 H          6.086151    7.889462    1.216634
 C          9.315308   -4.258825   -3.006877
 C         10.980479   -2.722358   -1.901649
 C         12.616004   -1.202934   -0.845863
 C         12.894316   -0.135286    0.117292
 C         12.013540    1.801554    1.379135
 C         11.137869    3.729759    2.740853
 O          8.169599   -4.641756   -3.218243
 N         10.393738   -4.885861   -3.638878
 C         12.018386   -3.365638   -2.599732
 C         13.610185   -1.827415   -1.622250
 C         14.194368    0.166894    0.616567
 C         13.323534    2.142237    1.764932
 O         10.219843    4.400602    3.199627
 N         12.464486    4.051040    3.047213
 C         11.738677   -4.506302   -3.501074
 C         10.065549   -6.006632   -4.528256
 C         13.320516   -2.888088   -2.476867
 H         14.628200   -1.466320   -1.584455
 C         14.375327    1.314943    1.408755
 C         15.362572   -0.723274    0.455588
 C         13.586034    3.324530    2.619227
 C         12.669307    5.222564    3.907918
 O         12.628154   -5.093594   -4.106756
 H          9.512268   -6.766224   -3.972029
 H          9.441718   -5.656168   -5.354177
 H         10.999176   -6.414554   -4.907171
 H         14.106758   -3.353831   -3.060735
 H         15.360831    1.543247    1.797581
 C         16.631821   -0.319224    0.310904
 H         15.157811   -1.791353    0.505265
 O         14.719892    3.654980    2.947499
 H         12.200695    6.097592    3.452864
 H         12.212016    5.051178    4.885537
 H         13.740527    5.373848    4.013933
 H         17.444386   -1.037988    0.266944
 H         16.901732    0.729290    0.216025
