       113
S0: Total Energy = -4731.69075185
 C         10.172744   -0.919258    1.294464
 C         11.381594   -0.267160    1.170305
 C         11.527824    0.949545    0.457209
 C         10.372958    1.522844   -0.100072
 C          9.130529    0.833554   -0.021654
 C          9.008400   -0.405532    0.670059
 C          7.968751    1.361526   -0.635290
 C          6.780905    0.667014   -0.591796
 C          6.639590   -0.582713    0.068953
 C          7.765893   -1.101537    0.738952
 C          7.692108   -2.319035    1.603639
 N          8.883604   -2.785411    2.186013
 C         10.134154   -2.180124    2.074304
 C         10.380770    2.897495   -0.681500
 N          9.218132    3.338738   -1.334322
 C          8.002587    2.655653   -1.363274
 O          6.657021   -2.920937    1.845519
 O         11.131939   -2.655581    2.601778
 O          7.021389    3.108102   -1.939124
 O         11.335107    3.656218   -0.601074
 C          9.291093    4.668707   -1.954261
 C          8.763602   -4.000284    3.003794
 H         12.256047   -0.723101    1.619880
 H          5.932570    1.091034   -1.116698
 H         10.145670    4.707386   -2.631889
 H          8.362901    4.832226   -2.495954
 H          9.421052    5.434232   -1.185203
 H          8.342730   -4.808420    2.402271
 H          9.758920   -4.262391    3.353304
 H          8.097936   -3.814090    3.849597
 C         12.906114    1.463643    0.346859
 C         13.802416    1.616800    1.380329
 S         13.696216    1.750025   -1.189003
 C         15.107038    1.995754    0.951278
 H         13.525389    1.479871    2.420312
 C         15.204062    2.094223   -0.410163
 H         15.934803    2.181329    1.626632
 H         16.071457    2.347205   -1.005464
 C          5.323175   -1.232677   -0.057735
 S          3.863699   -0.276092    0.114601
 C          5.007702   -2.516446   -0.442582
 C          2.848020   -1.622586   -0.324664
 C          3.619248   -2.728830   -0.615611
 H          5.753811   -3.283778   -0.603504
 C          1.391026   -1.505999   -0.529331
 H          3.191666   -3.675977   -0.926508
 C          0.926302   -1.893168   -1.811439
 C          0.445926   -1.026870    0.392354
 C         -0.394000   -1.776785   -2.192475
 H          1.634247   -2.274637   -2.537956
 C         -0.910091   -0.861653   -0.004738
 C          0.797966   -0.784838    1.822091
 C         -1.354428   -1.224991   -1.308308
 C         -0.770245   -2.222321   -3.556319
 C         -1.866928   -0.326328    0.891523
 N         -0.174685   -0.198906    2.646776
 O          1.878929   -1.086040    2.305774
 C         -2.711407   -1.049021   -1.709338
 N         -2.120133   -2.104179   -3.881156
 O          0.047602   -2.679423   -4.345015
 C         -3.167880   -0.131414    0.486162
 C         -1.493717    0.062213    2.275682
 C          0.234839    0.079912    4.030061
 C         -3.629502   -0.460329   -0.816825
 C         -3.122899   -1.585700   -3.043012
 C         -2.569975   -2.589482   -5.193149
 H         -3.851437    0.322796    1.194287
 O         -2.295204    0.564883    3.052524
 H          1.142398    0.685981    4.025387
 H         -0.580131    0.611104    4.515092
 H          0.443156   -0.855911    4.554544
 O         -4.277942   -1.613804   -3.439120
 H         -3.084619   -1.786649   -5.724649
 H         -1.690642   -2.911583   -5.744953
 H         -3.265479   -3.421737   -5.063153
 C         -5.028881   -0.106177   -1.112674
 S         -6.275785   -0.433766    0.075991
 C         -5.554453    0.599139   -2.171678
 C         -7.490661    0.372520   -0.878060
 C         -6.932729    0.888825   -2.028650
 H         -4.965024    0.906234   -3.025941
 C         -8.868185    0.607258   -0.399500
 H         -7.508346    1.444287   -2.761279
 C         -9.258876    1.972601   -0.333204
 C         -9.783837   -0.373493    0.016866
 C        -10.485341    2.363734    0.159685
 H         -8.561597    2.737160   -0.655818
 C        -11.040072    0.017701    0.561045
 C         -9.530899   -1.829888   -0.187161
 C        -11.393980    1.392649    0.637903
 C        -10.827198    3.811653    0.209826
 C        -11.967596   -0.941749    1.043757
 N        -10.448223   -2.734549    0.369955
 O         -8.581468   -2.264143   -0.822373
 C        -12.642080    1.778596    1.180184
 N        -12.076435    4.139639    0.755243
 O        -10.062945    4.673367   -0.202041
 C        -13.182089   -0.541591    1.579792
 C        -11.656128   -2.391169    0.983403
 C        -10.127987   -4.159116    0.204297
 C        -13.524706    0.819347    1.647856
 C        -13.008675    3.216824    1.247501
 C        -12.462620    5.555126    0.830304
 H        -13.862680   -1.303064    1.943996
 O        -12.415768   -3.242178    1.427788
 H         -9.117835   -4.348978    0.570774
 H        -10.857732   -4.730495    0.772290
 H        -10.172531   -4.433463   -0.852763
 O        -14.074280    3.603914    1.707195
 H        -12.647564    5.831574    1.870623
 H        -11.647305    6.144776    0.419083
 H        -13.378537    5.718012    0.257956
 H        -14.475888    1.134531    2.062196
       113
T1: Total Energy = -4731.63740458
 C        -10.270136   -0.731204   -0.430577
 C        -11.343043    0.129407   -0.306932
 C        -11.189902    1.520520   -0.093056
 C         -9.877135    2.038636   -0.061196
 C         -8.767709    1.157558   -0.132497
 C         -8.942854   -0.247941   -0.305268
 C         -7.438492    1.649797   -0.044607
 C         -6.368622    0.784508   -0.068390
 C         -6.518880   -0.623912   -0.182397
 C         -7.833401   -1.133146   -0.361410
 C         -8.085033   -2.547748   -0.739916
 N         -9.416429   -2.979627   -0.822169
 C        -10.541942   -2.167408   -0.665566
 C         -9.611334    3.505443   -0.076132
 N         -8.282671    3.932821    0.083953
 C         -7.165428    3.098828    0.111779
 O         -7.192649   -3.349033   -0.997760
 O        -11.677979   -2.620018   -0.740711
 O         -6.030305    3.542419    0.238598
 O        -10.483988    4.346177   -0.237992
 C         -8.074491    5.386154    0.135754
 C         -9.615348   -4.397167   -1.153831
 H        -12.340573   -0.292182   -0.347290
 H         -5.381091    1.212496    0.062023
 H         -8.711680    5.817296    0.909756
 H         -7.025147    5.561948    0.358762
 H         -8.338523    5.837250   -0.824038
 H         -9.095903   -5.021578   -0.424217
 H        -10.684273   -4.593518   -1.133111
 H         -9.207535   -4.608077   -2.145122
 C        -12.438249    2.272562    0.117023
 C        -13.587816    2.160672   -0.636081
 S        -12.734861    3.270514    1.526029
 C        -14.688418    2.892876   -0.109692
 H        -13.631329    1.584276   -1.554142
 C        -14.381545    3.530488    1.062857
 H        -15.664107    2.939198   -0.580260
 H        -15.024879    4.140167    1.683563
 C         -5.312692   -1.420645   -0.030475
 S         -3.785850   -0.845788   -0.653194
 C         -5.129289   -2.630614    0.669927
 C         -2.894298   -2.171597    0.090469
 C         -3.808195   -3.027866    0.753077
 H         -5.947498   -3.176072    1.117720
 C         -1.460934   -2.265097    0.166184
 H         -3.497969   -3.929556    1.265334
 C         -0.944136   -2.946256    1.294776
 C         -0.495000   -1.632032   -0.709514
 C          0.390217   -2.928346    1.644311
 H         -1.610983   -3.451251    1.981361
 C          0.857861   -1.555861   -0.322633
 C         -0.849765   -1.199113   -2.071572
 C          1.337045   -2.182842    0.878019
 C          0.796986   -3.650161    2.860641
 C          1.810362   -0.874720   -1.130836
 N          0.097397   -0.469455   -2.801358
 O         -1.932782   -1.459652   -2.598829
 C          2.685753   -2.094551    1.270665
 N          2.163162   -3.618096    3.147936
 O          0.002597   -4.262172    3.571899
 C          3.122379   -0.744888   -0.710714
 C          1.420069   -0.252745   -2.408013
 C         -0.331052    0.014520   -4.119399
 C          3.600117   -1.289177    0.498469
 C          3.141343   -2.950829    2.392687
 C          2.655817   -4.403481    4.286187
 H          3.776107   -0.142619   -1.331293
 O          2.202621    0.391454   -3.102907
 H         -1.246351    0.599965   -4.014257
 H          0.472755    0.626251   -4.521441
 H         -0.533119   -0.830484   -4.782462
 O          4.320600   -3.119781    2.689988
 H          3.244146   -3.763424    4.946620
 H          1.790378   -4.802718    4.809048
 H          3.295222   -5.215809    3.932148
 C          4.949375   -0.927088    0.900154
 S          6.177561   -0.603274   -0.316886
 C          5.455745   -0.644587    2.166027
 C          7.333730   -0.097151    0.884337
 C          6.772732   -0.155498    2.151201
 H          4.877975   -0.769236    3.070427
 C          8.645253    0.489522    0.555367
 H          7.316014    0.131767    3.044764
 C          8.886849    1.772984    1.118076
 C          9.627330   -0.073167   -0.278739
 C         10.024335    2.497348    0.833211
 H          8.140958    2.216829    1.767279
 C         10.789501    0.678322   -0.608481
 C          9.550960   -1.487041   -0.745707
 C         10.989666    1.973171   -0.056193
 C         10.208685    3.841657    1.445472
 C         11.772100    0.166552   -1.495455
 N         10.506843   -1.918255   -1.676460
 O          8.710615   -2.279113   -0.343750
 C         12.144089    2.719120   -0.388618
 N         11.370000    4.538124    1.083814
 O          9.393121    4.316677    2.223636
 C         12.891897    0.918772   -1.816135
 C         11.618896   -1.181515   -2.095967
 C         10.353846   -3.295416   -2.166577
 C         13.083126    2.195936   -1.262287
 C         12.351630    4.066599    0.201897
 C         11.599878    5.870739    1.658353
 H         13.618236    0.498625   -2.502879
 O         12.424243   -1.635557   -2.898021
 H          9.342149   -3.433132   -2.551573
 H         11.089354   -3.450542   -2.951851
 H         10.516400   -4.004254   -1.350717
 O         13.331027    4.753516   -0.053487
 H         11.671171    6.609510    0.857138
 H         10.763308    6.099579    2.313611
 H         12.536819    5.873077    2.219700
 H         13.960695    2.783781   -1.507436
       113
S1: Total Energy = -4731.62765689
 C         -9.963299   -1.909086   -0.372473
 C        -11.261196   -1.534069   -0.622759
 C        -11.652774   -0.175487   -0.809299
 C        -10.641130    0.804368   -0.795102
 C         -9.305489    0.435068   -0.477206
 C         -8.947227   -0.925874   -0.251291
 C         -8.282977    1.410087   -0.382517
 C         -6.997672    1.050771   -0.039452
 C         -6.636376   -0.295221    0.230701
 C         -7.622493   -1.293052    0.077532
 C         -7.278231   -2.745087    0.137816
 N         -8.317207   -3.670145    0.047245
 C         -9.659900   -3.351742   -0.190554
 C        -10.891810    2.211654   -1.228233
 N         -9.863217    3.149090   -1.041049
 C         -8.567796    2.849389   -0.627368
 O         -6.126116   -3.144245    0.253496
 O        -10.520766   -4.215142   -0.258894
 O         -7.709349    3.710107   -0.494874
 O        -11.933108    2.573851   -1.752648
 C        -10.178462    4.537515   -1.409813
 C         -7.936963   -5.087871    0.153079
 H        -12.019626   -2.307611   -0.640990
 H         -6.265875    1.843718    0.066920
 H        -11.088277    4.850871   -0.895707
 H         -9.336268    5.157887   -1.114169
 H        -10.342107    4.609456   -2.487721
 H         -7.413324   -5.255882    1.095869
 H         -8.848898   -5.677618    0.111592
 H         -7.271849   -5.354742   -0.671039
 C        -13.097369    0.042489   -0.944882
 C        -13.968817   -0.769065   -1.649305
 S        -13.994484    1.241799   -0.036819
 C        -15.333172   -0.415802   -1.487249
 H        -13.631089   -1.580701   -2.284743
 C        -15.500675    0.638843   -0.626112
 H        -16.153239   -0.924325   -1.980746
 H        -16.425384    1.099679   -0.304306
 C         -5.272827   -0.535254    0.693952
 S         -3.934843    0.327845   -0.016507
 C         -4.836879   -1.312449    1.795313
 C         -2.802558   -0.384633    1.117648
 C         -3.479471   -1.213336    2.035634
 H         -5.519912   -1.895365    2.397292
 C         -1.394329    0.060701    1.177205
 H         -2.957289   -1.714635    2.840538
 C         -1.040204    1.160315    1.944438
 C         -0.392048   -0.640053    0.464310
 C          0.299258    1.581169    2.028933
 H         -1.779398    1.721355    2.505168
 C          0.955181   -0.226807    0.526807
 C         -0.768345   -1.791995   -0.325298
 C          1.328293    0.906488    1.317687
 C          0.607328    2.730146    2.877359
 C          1.948448   -0.933117   -0.186875
 N          0.228376   -2.462040   -1.013839
 O         -1.954910   -2.180141   -0.392742
 C          2.687468    1.322540    1.383691
 N          1.961545    3.066737    2.966124
 O         -0.256387    3.363808    3.493571
 C          3.274429   -0.490313   -0.138113
 C          1.599743   -2.098009   -1.000901
 C         -0.181434   -3.624535   -1.808030
 C          3.671823    0.625012    0.608630
 C          3.029247    2.406622    2.321283
 C          2.343136    4.169758    3.852920
 H          4.001774   -1.022221   -0.740613
 O          2.418052   -2.749588   -1.649824
 H         -0.899643   -3.318324   -2.572857
 H          0.712017   -4.037803   -2.269588
 H         -0.657234   -4.366175   -1.161763
 O          4.174201    2.771287    2.587295
 H          2.940385    4.897913    3.299880
 H          1.428410    4.624571    4.225094
 H          2.946868    3.793973    4.683209
 C          5.085973    1.027236    0.475594
 S          6.339001   -0.194111    0.525369
 C          5.634725    2.258861    0.190296
 C          7.589469    0.960538    0.132333
 C          7.030060    2.216820   -0.025532
 H          5.047406    3.165971    0.137276
 C          8.980494    0.606219   -0.187647
 H          7.619502    3.092859   -0.275268
 C          9.491083    1.214600   -1.371904
 C          9.819977   -0.288976    0.506442
 C         10.736638    0.925543   -1.880141
 H          8.862742    1.905743   -1.920674
 C         11.094865   -0.632079   -0.033441
 C          9.479684   -0.813785    1.857900
 C         11.558427   -0.027693   -1.234135
 C         11.189351    1.593399   -3.129729
 C         11.936957   -1.583728    0.598854
 N         10.309550   -1.810643    2.401909
 O          8.534731   -0.412773    2.521778
 C         12.820572   -0.370927   -1.768756
 N         12.452002    1.220292   -3.613869
 O         10.504924    2.425559   -3.709882
 C         13.169388   -1.914439    0.052541
 C         11.519157   -2.244460    1.858214
 C          9.890920   -2.356292    3.699732
 C         13.617593   -1.308945   -1.130771
 C         13.297785    0.276315   -3.017014
 C         12.948345    1.850142   -4.844013
 H         13.778486   -2.651122    0.564340
 O         12.199334   -3.105398    2.404499
 H          8.853617   -2.688836    3.635913
 H         10.549337   -3.188425    3.936036
 H          9.962028   -1.586572    4.472648
 O         14.381702    0.016205   -3.523019
 H         13.129878    1.085803   -5.602976
 H         12.192919    2.553231   -5.185415
 H         13.888121    2.367993   -4.639646
 H         14.581978   -1.561009   -1.557500
