       113
S0: Total Energy = -3564.67483821
 C        -10.006841   -1.158375   -1.281323
 C        -11.260186   -0.595183   -1.154400
 C        -11.485293    0.632549   -0.481452
 C        -10.368447    1.305478    0.039657
 C         -9.078351    0.712071   -0.043915
 C         -8.873490   -0.535098   -0.701320
 C         -7.949751    1.349396    0.527165
 C         -6.711650    0.750263    0.474153
 C         -6.484695   -0.505805   -0.151743
 C         -7.580670   -1.132846   -0.779965
 C         -7.429891   -2.368901   -1.608793
 N         -8.595016   -2.948090   -2.142897
 C         -9.886547   -2.438876   -2.019880
 C        -10.479696    2.684041    0.599961
 N         -9.339201    3.239511    1.204361
 C         -8.071036    2.659676    1.216813
 O         -6.356808   -2.894572   -1.862141
 O        -10.855734   -3.009044   -2.505946
 O         -7.114912    3.208365    1.750356
 O        -11.502063    3.350054    0.543958
 C         -9.507605    4.574152    1.794834
 C         -8.398704   -4.178268   -2.922075
 H        -12.105479   -1.128286   -1.573577
 H         -5.887189    1.256844    0.962894
 H        -10.332858    4.555467    2.508988
 H         -8.576193    4.836432    2.290411
 H         -9.739678    5.302189    1.013519
 H         -7.899624   -4.928699   -2.305492
 H         -9.378481   -4.530466   -3.234652
 H         -7.771366   -3.970976   -3.792020
 C        -12.894266    1.054039   -0.374417
 C        -13.771948    1.201821   -1.412237
 C        -15.138907    1.452114   -1.058044
 H        -13.441546    1.147574   -2.445459
 C        -15.398499    1.470013    0.276920
 H        -15.912753    1.608135   -1.803242
 H        -16.348769    1.627468    0.769473
 C         -5.120560   -1.043093   -0.039687
 C         -4.702092   -2.276658    0.378347
 C         -2.506184   -1.386035    0.176825
 C         -3.296080   -2.453458    0.517938
 H         -5.403798   -3.071845    0.600987
 C         -1.049255   -1.296768    0.388011
 H         -2.866032   -3.389794    0.860737
 C         -0.607489   -1.577854    1.705972
 C         -0.079512   -0.937492   -0.562216
 C          0.714777   -1.476619    2.087477
 H         -1.334017   -1.865581    2.456797
 C          1.278614   -0.785815   -0.169084
 C         -0.417897   -0.802449   -2.008630
 C          1.701725   -1.045281    1.166189
 C          1.065082   -1.811655    3.489264
 C          2.259848   -0.370864   -1.102551
 N          0.581731   -0.332814   -2.875653
 O         -1.511857   -1.093049   -2.468097
 C          3.062941   -0.884889    1.562039
 N          2.416708   -1.717295    3.814311
 O          0.225079   -2.163909    4.308444
 C          3.564888   -0.190350   -0.705139
 C          1.909316   -0.096075   -2.519889
 C          0.188284   -0.158931   -4.280461
 C          4.008643   -0.413967    0.627274
 C          3.444340   -1.310163    2.944194
 C          2.839200   -2.097949    5.169212
 H          4.269452    0.169367   -1.446309
 O          2.735416    0.298548   -3.333075
 H         -0.688979    0.488094   -4.335461
 H          1.028886    0.287048   -4.806098
 H         -0.064338   -1.126722   -4.720850
 O          4.593614   -1.340471    3.356678
 H          3.371969   -1.266647    5.635414
 H          1.945224   -2.345214    5.736052
 H          3.511443   -2.957681    5.121004
 C          5.416175   -0.086630    0.897938
 C          5.957852    0.684410    1.889670
 C          8.020349    0.354880    0.754848
 C          7.355936    0.942418    1.798966
 H          5.353143    1.086918    2.693702
 C          9.426769    0.603204    0.379297
 H          7.875188    1.559191    2.526371
 C          9.755016    1.965410    0.135634
 C         10.429592   -0.366680    0.217452
 C         11.010087    2.356515   -0.281546
 H          8.989292    2.722140    0.260803
 C         11.720920    0.018346   -0.241237
 C         10.212147   -1.792999    0.595647
 C         12.014783    1.386059   -0.496337
 C         11.285502    3.799159   -0.524148
 C         12.744142   -0.940861   -0.458917
 N         11.237905   -2.707810    0.307727
 O          9.198040   -2.191735    1.148003
 C         13.298688    1.766183   -0.953353
 N         12.573030    4.121562   -0.976514
 O         10.437583    4.661755   -0.340316
 C         13.993599   -0.547873   -0.914228
 C         12.496668   -2.381937   -0.204422
 C         10.961238   -4.110123    0.648483
 C         14.275901    0.806813   -1.161196
 C         13.600646    3.198128   -1.210116
 C         12.896311    5.531290   -1.234322
 H         14.748739   -1.309342   -1.074246
 O         13.346574   -3.237891   -0.415522
 H         10.042611   -4.431830    0.154124
 H         11.806699   -4.705057    0.312340
 H         10.829291   -4.212683    1.728383
 O         14.693191    3.580164   -1.607255
 H         13.194563    5.655518   -2.277661
 H         12.008758    6.120913   -1.019083
 H         13.725706    5.842396   -0.595101
 H         15.253389    1.116987   -1.513565
Se          6.791610   -0.621395   -0.352782
Se         -3.597488    0.107892   -0.342704
Se        -13.828268    1.181660    1.312308
       113
T1: Total Energy = -3564.62293203
 C        -10.140800   -1.157792   -0.039499
 C        -11.261084   -0.364200    0.131037
 C        -11.212566    1.048277    0.090788
 C         -9.963047    1.653442   -0.186220
 C         -8.800735    0.855199   -0.306097
 C         -8.863163   -0.569408   -0.220958
 C         -7.526939    1.447829   -0.535473
 C         -6.395680    0.669031   -0.604327
 C         -6.416211   -0.745439   -0.447743
 C         -7.697003   -1.371383   -0.329061
 C         -7.869506   -2.836502   -0.462698
 N         -9.146457   -3.371284   -0.234775
 C        -10.305006   -2.626903    0.000495
 C         -9.849515    3.110382   -0.471414
 N         -8.561215    3.651547   -0.623859
 C         -7.376899    2.915840   -0.665261
 O         -6.961440   -3.602991   -0.776553
 O        -11.387811   -3.166771    0.200983
 O         -6.285889    3.454842   -0.817531
 O        -10.816944    3.848079   -0.594003
 C         -8.493700    5.102995   -0.837954
 C         -9.258873   -4.833363   -0.318993
 H        -12.206148   -0.855393    0.330432
 H         -5.448400    1.185085   -0.715014
 H         -9.019979    5.615786   -0.030704
 H         -7.444146    5.386101   -0.853788
 H         -8.971381    5.364625   -1.785513
 H         -8.553296   -5.296599    0.373634
 H        -10.280537   -5.100152   -0.060298
 H         -9.022133   -5.168448   -1.331733
 C        -12.477585    1.736914    0.386848
 C        -13.699285    1.431486   -0.154489
 C        -14.832896    2.096036    0.413158
 H        -13.791674    0.734455   -0.982189
 C        -14.556141    2.923952    1.458188
 H        -15.841649    1.944735    0.041867
 H        -15.250404    3.514755    2.040899
 C         -5.140855   -1.403706   -0.339376
 C         -4.785530   -2.516572    0.457325
 C         -2.552916   -2.076184   -0.302937
 C         -3.447582   -2.851059    0.485475
 H         -5.516936   -3.048455    1.049255
 C         -1.124315   -2.130258   -0.201598
 H         -3.102348   -3.676780    1.094226
 C         -0.612187   -2.795322    0.951099
 C         -0.137549   -1.486382   -1.046816
 C          0.705435   -2.755915    1.336627
 H         -1.277586   -3.318114    1.623198
 C          1.208122   -1.395043   -0.621708
 C         -0.455020   -1.025922   -2.408414
 C          1.666539   -2.008916    0.590969
 C          1.081830   -3.468553    2.573078
 C          2.175805   -0.703476   -1.400590
 N          0.508882   -0.298507   -3.115665
 O         -1.530436   -1.265046   -2.963266
 C          3.004203   -1.904673    1.023135
 N          2.434877   -3.416687    2.905749
 O          0.270508   -4.084516    3.259320
 C          3.474839   -0.566406   -0.949327
 C          1.820380   -0.082841   -2.690745
 C          0.108431    0.197274   -4.438888
 C          3.931250   -1.104456    0.273901
 C          3.429972   -2.738238    2.180830
 C          2.898532   -4.181785    4.070368
 H          4.142236    0.033458   -1.557619
 O          2.620733    0.560120   -3.364302
 H         -0.795347    0.802488   -4.345522
 H          0.930681    0.792796   -4.827845
 H         -0.102207   -0.642476   -5.105611
 O          4.595856   -2.881142    2.529182
 H          3.448961   -3.524150    4.746053
 H          2.021592   -4.592786    4.564276
 H          3.566122   -4.984761    3.748601
 C          5.278888   -0.744065    0.689146
 C          5.756486   -0.415608    1.939932
 C          7.798766    0.059156    0.825905
 C          7.096655    0.040941    2.007219
 H          5.132483   -0.479703    2.821726
 C          9.148757    0.626008    0.638130
 H          7.554916    0.345568    2.943160
 C          9.288312    1.994909    0.995280
 C         10.264316   -0.050788    0.120525
 C         10.471427    2.681828    0.816951
 H          8.434514    2.525640    1.400549
 C         11.482327    0.651397   -0.094398
 C         10.239972   -1.520081   -0.132581
 C         11.588328    2.026601    0.250931
 C         10.551580    4.116955    1.204800
 C         12.615040    0.007782   -0.657132
 N         11.365314   -2.094235   -0.742840
 O          9.297347   -2.233840    0.176304
 C         12.800641    2.723212    0.034407
 N         11.774802    4.760224    0.968845
 O          9.603375    4.707727    1.703335
 C         13.791181    0.711075   -0.868091
 C         12.560384   -1.427786   -1.031144
 C         11.279414   -3.533778   -1.026022
 C         13.888456    2.070259   -0.521251
 C         12.907734    4.158075    0.405329
 C         11.905922    6.178015    1.331272
 H         14.635224    0.189448   -1.305381
 O         13.508114   -2.003812   -1.549509
 H         10.389718   -3.734637   -1.625655
 H         12.179021   -3.819016   -1.565623
 H         11.203669   -4.094800   -0.091233
 O         13.931235    4.807181    0.237816
 H         12.159098    6.762575    0.444087
 H         10.955134    6.505260    1.744427
 H         12.703816    6.298003    2.067649
 H         14.808604    2.621195   -0.681403
Se          6.677967   -0.490108   -0.630444
Se         -3.594139   -0.767881   -1.296022
Se        -12.696658    2.991102    1.843026
       113
S1: Total Energy = -3564.61175792
 C         -9.759326   -2.015446   -0.269305
 C        -11.084348   -1.700604   -0.459915
 C        -11.541661   -0.365663   -0.667538
 C        -10.572126    0.652448   -0.733985
 C         -9.206419    0.347807   -0.480016
 C         -8.780358   -0.989346   -0.233360
 C         -8.222362    1.365932   -0.472101
 C         -6.905643    1.068647   -0.193109
 C         -6.473338   -0.252042    0.097668
 C         -7.424200   -1.292185    0.033415
 C         -7.018689   -2.725571    0.135594
 N         -8.021331   -3.694500    0.116533
 C         -9.386416   -3.438431   -0.064298
 C        -10.910849    2.037860   -1.175311
 N         -9.910264    3.020198   -1.082080
 C         -8.579853    2.783905   -0.746008
 O         -5.847863   -3.075260    0.224514
 O        -10.211991   -4.338701   -0.067127
 O         -7.749284    3.680825   -0.697897
 O        -12.002146    2.345359   -1.627073
 C        -10.306610    4.384081   -1.463299
 C         -7.578279   -5.091283    0.251178
 H        -11.810868   -2.503245   -0.417388
 H         -6.200714    1.891613   -0.155518
 H        -11.185095    4.680756   -0.888019
 H         -9.468457    5.043605   -1.252841
 H        -10.556975    4.416432   -2.526435
 H         -7.022762   -5.210863    1.183273
 H         -8.465138   -5.719620    0.251747
 H         -6.924568   -5.353294   -0.583546
 C        -12.999575   -0.210816   -0.739028
 C        -13.849842   -1.042953   -1.426139
 C        -15.247807   -0.837953   -1.215678
 H        -13.474712   -1.801575   -2.106739
 C        -15.558364    0.135492   -0.313601
 H        -16.005833   -1.422397   -1.726837
 H        -16.541110    0.447532    0.014462
 C         -5.074965   -0.422512    0.481589
 C         -4.564531   -1.114250    1.599786
 C         -2.470710   -0.279748    0.861307
 C         -3.195499   -1.021262    1.806334
 H         -5.220622   -1.653649    2.270607
 C         -1.056868    0.124910    0.950867
 H         -2.690079   -1.486626    2.644404
 C         -0.684409    1.238896    1.690546
 C         -0.057744   -0.632339    0.293844
 C          0.667000    1.612922    1.801818
 H         -1.418355    1.846377    2.207896
 C          1.300924   -0.268280    0.383380
 C         -0.456384   -1.799128   -0.459049
 C          1.692448    0.877499    1.146202
 C          0.992748    2.778821    2.620904
 C          2.286073   -1.039205   -0.272652
 N          0.530126   -2.533317   -1.092985
 O         -1.657124   -2.140755   -0.541540
 C          3.063989    1.244090    1.241329
 N          2.355410    3.066797    2.742336
 O          0.135218    3.465375    3.187489
 C          3.626138   -0.645413   -0.196692
 C          1.915134   -2.221924   -1.050885
 C          0.097800   -3.710716   -1.852641
 C          4.044155    0.483861    0.518735
 C          3.418061    2.345657    2.154958
 C          2.751048    4.183629    3.605429
 H          4.351562   -1.227711   -0.753575
 O          2.725059   -2.931331   -1.647678
 H         -0.597083   -3.409912   -2.640789
 H          0.985878   -4.167769   -2.282468
 H         -0.411937   -4.414321   -1.189540
 O          4.566150    2.675907    2.449583
 H          3.397845    4.866880    3.050791
 H          1.843394    4.687918    3.928087
 H          3.308497    3.813044    4.469904
 C          5.470975    0.831856    0.411384
 C          6.061747    2.028048    0.103597
 C          8.112251    0.810190    0.144425
 C          7.473309    2.009521   -0.066012
 H          5.481829    2.935667   -0.012341
 C          9.525157    0.546777   -0.167571
 H          8.026302    2.904216   -0.337839
 C          9.970054    1.077901   -1.414275
 C         10.446282   -0.198591    0.595351
 C         11.234742    0.853416   -1.910466
 H          9.277048    1.653976   -2.015616
 C         11.744453   -0.475300    0.074860
 C         10.152929   -0.629565    1.990394
 C         12.144154    0.048379   -1.185431
 C         11.618673    1.433492   -3.225387
 C         12.673683   -1.278104    0.787091
 N         11.077367   -1.482014    2.621567
 O          9.165701   -0.269379    2.614147
 C         13.430879   -0.228690   -1.700712
 N         12.908459    1.131311   -3.687969
 O         10.857816    2.138450   -3.875029
 C         13.929508   -1.545633    0.259898
 C         12.322827   -1.848532    2.110078
 C         10.711569   -1.939694    3.968470
 C         14.314285   -1.021022   -0.983798
 C         13.840605    0.332091   -3.013241
 C         13.338121    1.679187   -4.980959
 H         14.607013   -2.168348    0.833359
 O         13.083850   -2.582970    2.729903
 H          9.721008   -2.397176    3.941120
 H         11.460311   -2.660788    4.286924
 H         10.683683   -1.092583    4.658740
 O         14.941575    0.122371   -3.506230
 H         13.578620    0.863386   -5.666616
 H         12.521548    2.278670   -5.375429
 H         14.231201    2.292819   -4.842808
 H         15.296272   -1.223676   -1.396496
Se          6.815730   -0.542832    0.582726
Se         -3.678003    0.483106   -0.452620
Se        -14.015346    0.995066    0.376817
