       134
S0: Total Energy = -6387.12452784
 C        -14.896027    1.566384    0.605879
 C        -16.221412    1.243808    0.809375
 C        -16.748961   -0.042317    0.526900
 C        -15.861780   -1.029908    0.066730
 C        -14.499340   -0.700333   -0.177292
 C        -13.995933    0.605579    0.082335
 C        -13.599676   -1.660609   -0.703092
 C        -12.274774   -1.339540   -0.905677
 C        -11.744785   -0.053653   -0.620254
 C        -12.633078    0.935387   -0.161667
 C        -12.223497    2.363287   -0.029696
 N        -13.128841    3.250094    0.574519
 C        -14.447550    2.946638    0.916912
 C        -16.275848   -2.456895   -0.076013
 N        -15.369116   -3.342537   -0.681629
 C        -14.049123   -3.040283   -1.017839
 O        -11.153159    2.795671   -0.432360
 O        -15.189092    3.778413    1.424122
 O        -13.306343   -3.871132   -1.524795
 O        -17.348751   -2.889241    0.317500
 C        -15.843751   -4.719308   -0.876132
 C        -12.656721    4.629002    0.759482
 C        -10.289114    0.080935   -0.798371
 S         -9.214242    0.631282    0.467466
 C         -7.794564    0.290094   -0.500780
 C         -8.161480   -0.233909   -1.725041
 C         -9.561880   -0.368984   -1.880838
 H        -16.887232    2.017160    1.174415
 H        -11.610980   -2.115744   -1.268196
 H        -16.798203   -4.702241   -1.404524
 H        -15.091866   -5.249981   -1.454818
 H        -15.989240   -5.206979    0.091230
 H        -12.514660    5.111167   -0.211130
 H        -13.408422    5.161309    1.336909
 H        -11.700957    4.617549    1.285739
 H         -7.444826   -0.498367   -2.494938
 H        -10.029512   -0.759451   -2.778344
 C        -18.205850   -0.187354    0.711491
 C        -18.924403    0.178821    1.826831
 S        -19.289205   -0.652255   -0.582824
 C        -20.334250    0.055132    1.661936
 H        -18.450987    0.508930    2.745551
 C        -20.680936   -0.371396    0.408846
 H        -21.055242    0.278408    2.440436
 H        -21.671081   -0.536960    0.005165
 C         -6.468530    0.557856    0.012022
 S         -5.054631   -0.161935   -0.732194
 C         -6.098355    1.354107    1.078297
 C         -3.977526    0.636354    0.392382
 C         -4.697682    1.411515    1.276590
 H         -6.811952    1.901962    1.683931
 C         -2.509799    0.618122    0.257516
 H         -4.227112    1.999773    2.057090
 C         -1.890076    1.892939    0.189374
 C         -1.688690   -0.517912    0.147403
 C         -0.538249    2.052911   -0.029872
 H         -2.501468    2.783209    0.280156
 C         -0.297746   -0.364638   -0.108161
 C         -2.207797   -1.892663    0.402902
 C          0.298811    0.923793   -0.209199
 C          0.007765    3.431244   -0.105311
 C          0.539634   -1.494024   -0.286036
 N         -1.355954   -2.974917    0.130439
 O         -3.324171   -2.116727    0.847408
 C          1.689511    1.077263   -0.467387
 N          1.355347    3.533742   -0.453497
 O         -0.681068    4.421378    0.104696
 C          1.891406   -1.334188   -0.503472
 C         -0.006547   -2.872468   -0.210694
 C         -1.931675   -4.313455    0.319520
 C          2.511296   -0.059009   -0.574432
 C          2.204957    2.451288   -0.732816
 C          1.928872    4.872295   -0.648365
 H          2.503113   -2.224555   -0.591193
 O          0.683524   -3.862623   -0.416228
 H         -2.860490   -4.392360   -0.247711
 H         -1.202795   -5.039464   -0.031668
 H         -2.153131   -4.481150    1.376598
 C          3.977743   -0.077117   -0.708602
 O          3.315837    2.675309   -1.191197
 H          2.138050    5.041097   -1.707801
 H          1.204187    5.598094   -0.288133
 H          2.864189    4.950623   -0.091868
 S          5.053143    0.743026    0.401460
 C          4.700553   -0.863204   -1.581709
 C          6.471392    0.047143   -0.356987
 C          6.101653   -0.779547   -1.400320
 H          4.231794   -1.463629   -2.353958
 H          6.817826   -1.302010   -2.025142
 C          7.798259    0.361482    0.125210
 S          9.187699   -0.571962   -0.393715
 C          8.188054    1.358852    0.998323
 C         10.281962    0.405814    0.559331
 C          9.584721    1.393023    1.224236
 H          7.492498    2.060236    1.446086
 C         11.748949    0.293260    0.478757
 H         10.069027    2.118351    1.869155
 C         12.433336    1.500522    0.179242
 C         12.515049   -0.877065    0.621382
 C         13.795307    1.553437   -0.025617
 H         11.865358    2.417416    0.073604
 C         13.917225   -0.840061    0.380574
 C         11.925311   -2.147838    1.132577
 C         14.578482    0.374701    0.044370
 C         14.411215    2.864621   -0.351291
 C         14.701027   -2.018107    0.454354
 N         12.726724   -3.299942    1.101434
 O         10.792740   -2.228038    1.585807
 C         15.979749    0.411063   -0.199638
 N         15.770078    2.837519   -0.666731
 O         13.767434    3.905993   -0.361240
 C         16.063470   -1.964518    0.247428
 C         14.085967   -3.327944    0.784999
 C         12.082577   -4.546846    1.536058
 C         16.745203   -0.758727   -0.059413
 C         16.571208    1.684324   -0.706114
 C         16.415046    4.086467   -1.094070
 H         16.634210   -2.879999    0.351332
 O         14.729340   -4.369444    0.799357
 H         11.156776   -4.690449    0.976770
 H         12.777500   -5.361264    1.347433
 H         11.842099   -4.494433    2.600986
 C         18.213747   -0.864817   -0.157063
 O         17.702248    1.767105   -1.160745
 H         16.652637    4.041488   -2.160011
 H         15.722083    4.900764   -0.897825
 H         17.342503    4.224224   -0.536113
 S         19.307293    0.057248    0.852541
 C         18.913474   -1.793034   -0.894348
 C         20.680885   -0.804170    0.244315
 C         20.321392   -1.745736   -0.681268
 H         18.430405   -2.476624   -1.584639
 H         21.670909   -0.563605    0.608668
 H         21.031310   -2.387285   -1.191309
       134
T1: Total Energy = -6387.07749169
 C        -14.765132    1.848654   -0.072048
 C        -16.119722    1.714338    0.149175
 C        -16.750032    0.452578    0.305117
 C        -15.938302   -0.695147    0.278775
 C        -14.545513   -0.571880    0.017042
 C        -13.937646    0.702301   -0.167590
 C        -13.718406   -1.717935   -0.085653
 C        -12.364694   -1.586002   -0.312310
 C        -11.734394   -0.323398   -0.457957
 C        -12.545119    0.826218   -0.426081
 C        -12.012256    2.173478   -0.774692
 N        -12.852917    3.279162   -0.581877
 C        -14.205599    3.212886   -0.239449
 C        -16.468982   -2.045582    0.626952
 N        -15.627189   -3.151470    0.421321
 C        -14.277309   -3.083682    0.076264
 O        -10.890486    2.352329   -1.228984
 O        -14.885687    4.221900   -0.105934
 O        -13.595110   -4.090660   -0.065039
 O        -17.583926   -2.231394    1.090850
 C        -16.215043   -4.469850    0.695433
 C        -12.263916    4.595939   -0.861542
 C        -10.268224   -0.363689   -0.577903
 S         -9.192012    0.517787    0.478170
 C         -7.776200   -0.262658   -0.211242
 C         -8.158713   -1.157587   -1.207789
 C         -9.550223   -1.225116   -1.393797
 H        -16.725852    2.612424    0.174891
 H        -11.763537   -2.487356   -0.342369
 H        -17.146160   -4.574858    0.136320
 H        -15.494227   -5.223532    0.388645
 H        -16.435063   -4.568987    1.761429
 H        -12.030193    4.684299   -1.925505
 H        -12.990312    5.350936   -0.571722
 H        -11.340423    4.709239   -0.291337
 H         -7.448099   -1.745002   -1.778412
 H        -10.027751   -1.870300   -2.122830
 C        -18.218650    0.488259    0.434900
 C        -18.937969    1.304164    1.279640
 S        -19.297798   -0.361203   -0.651167
 C        -20.346542    1.226488    1.084359
 H        -18.467100    1.926882    2.033031
 C        -20.689075    0.377520    0.066910
 H        -21.069433    1.781188    1.672018
 H        -21.676569    0.140472   -0.306539
 C         -6.460706    0.045518    0.250516
 S         -5.048081   -0.738498   -0.427566
 C         -6.085239    0.927081    1.271044
 C         -3.960543    0.157168    0.618117
 C         -4.707064    0.994780    1.463589
 H         -6.801198    1.493417    1.856422
 C         -2.512129    0.186183    0.492046
 H         -4.243365    1.618277    2.218311
 C         -1.921369    1.446127    0.713539
 C         -1.643346   -0.884059    0.072432
 C         -0.579554    1.707719    0.485494
 H         -2.534968    2.287717    1.009615
 C         -0.280374   -0.620616   -0.187343
 C         -2.096050   -2.285167    0.029055
 C          0.287563    0.684832    0.008608
 C         -0.094750    3.077420    0.699924
 C          0.586964   -1.643330   -0.664697
 N         -1.227694   -3.242635   -0.515616
 O         -3.191166   -2.659231    0.452363
 C          1.650948    0.947952   -0.249583
 N          1.234515    3.307511    0.332708
 O         -0.801526    3.978993    1.150971
 C          1.929532   -1.382883   -0.888668
 C          0.101897   -3.012480   -0.881441
 C         -1.750839   -4.609890   -0.608866
 C          2.521213   -0.123706   -0.664341
 C          2.103202    2.348903   -0.209031
 C          1.757175    4.675178    0.422551
 H          2.542508   -2.225633   -1.182570
 O          0.808706   -3.913659   -1.333337
 H         -2.701165   -4.601680   -1.145826
 H         -1.013338   -5.208656   -1.137774
 H         -1.922807   -5.017903    0.390806
 C          3.970082   -0.097538   -0.775923
 O          3.198802    2.721890   -0.632706
 H          1.932801    5.079087   -0.578116
 H          1.017659    5.275838    0.946471
 H          2.705514    4.669407    0.963128
 S          5.046537    0.811764    0.269682
 C          4.726348   -0.949086   -1.600565
 C          6.465782    0.012333   -0.376510
 C          6.101034   -0.883392   -1.389816
 H          4.271393   -1.581529   -2.353045
 H          6.823161   -1.459909   -1.957400
 C          7.774476    0.321330    0.100693
 S          9.196190   -0.495144   -0.533808
 C          8.145990    1.242718    1.077994
 C         10.258538    0.405803    0.519560
 C          9.533417    1.300595    1.292309
 H          7.430052    1.855650    1.614067
 C         11.726826    0.342136    0.438662
 H         10.003187    1.962273    2.011448
 C         12.378418    1.588675    0.255264
 C         12.521105   -0.818335    0.481043
 C         13.740144    1.692582    0.063497
 H         11.789393    2.498155    0.227828
 C         13.922382   -0.724222    0.261102
 C         11.957528   -2.141522    0.870979
 C         14.553623    0.532584    0.039337
 C         14.323055    3.042003   -0.144229
 C         14.735858   -1.884371    0.243717
 N         12.788283   -3.265260    0.757132
 O         10.818435   -2.285085    1.293649
 C         15.955929    0.626047   -0.180848
 N         15.684271    3.076640   -0.447189
 O         13.650622    4.062854   -0.073088
 C         16.098546   -1.777574    0.060855
 C         14.151880   -3.232135    0.455182
 C         12.171835   -4.560055    1.077340
 C         16.751407   -0.532049   -0.129280
 C         16.517953    1.952432   -0.569557
 C         16.299452    4.373127   -0.762629
 H         16.692448   -2.683529    0.094882
 O         14.821303   -4.254831    0.389497
 H         11.267756   -4.689593    0.480068
 H         12.897710   -5.336718    0.850261
 H         11.899014   -4.594142    2.135072
 C         18.222881   -0.591770   -0.206669
 O         17.652049    2.103277   -0.998466
 H         16.563391    4.415465   -1.822368
 H         15.576706    5.149112   -0.523452
 H         17.208798    4.496296   -0.172183
 S         19.274932    0.286767    0.882772
 C         18.959495   -1.451395   -0.990861
 C         20.679794   -0.499356    0.246111
 C         20.361225   -1.384561   -0.747982
 H         18.506455   -2.098370   -1.734654
 H         21.656761   -0.260358    0.645121
 H         21.096342   -1.972548   -1.286026
       134
S1: Total Energy = -6387.07720415
 C        -14.784604    2.108081   -0.357375
 C        -16.145548    1.969288   -0.205442
 C        -16.761762    0.724009    0.107336
 C        -15.930386   -0.388853    0.318756
 C        -14.524870   -0.269573    0.117445
 C        -13.938864    0.979445   -0.227383
 C        -13.670188   -1.390555    0.245009
 C        -12.309231   -1.267745    0.031854
 C        -11.724520   -0.029109   -0.308887
 C        -12.542494    1.097668   -0.430606
 C        -11.965273    2.428107   -0.771493
 N        -12.839709    3.509065   -0.878583
 C        -14.228928    3.444656   -0.694762
 C        -16.449827   -1.678106    0.864283
 N        -15.572791   -2.776282    0.892496
 C        -14.209571   -2.727122    0.608580
 O        -10.764832    2.593115   -0.951982
 O        -14.933794    4.435939   -0.806304
 O        -13.495232   -3.718535    0.673669
 O        -17.581958   -1.815584    1.299805
 C        -16.145654   -4.047570    1.358814
 C        -12.232146    4.806583   -1.211061
 C        -10.257214   -0.007192   -0.531207
 S         -9.158683    0.184629    0.794976
 C         -7.766202   -0.027533   -0.268995
 C         -8.198808   -0.254574   -1.588708
 C         -9.586286   -0.250999   -1.727177
 H        -16.771878    2.839861   -0.361591
 H        -11.690938   -2.153141    0.130311
 H        -17.048075   -4.268232    0.786910
 H        -15.397085   -4.822012    1.212039
 H        -16.410810   -3.973798    2.416421
 H        -11.719317    4.737193   -2.172642
 H        -13.030046    5.543043   -1.257575
 H        -11.504213    5.078922   -0.444024
 H         -7.511471   -0.419198   -2.410359
 H        -10.106378   -0.408867   -2.663842
 C        -18.233958    0.738248    0.125025
 C        -19.025904    1.693679    0.726375
 S        -19.218372   -0.353677   -0.825179
 C        -20.413616    1.533771    0.457668
 H        -18.622016    2.475463    1.360967
 C        -20.666863    0.479466   -0.378834
 H        -21.186123    2.177166    0.863210
 H        -21.620344    0.141013   -0.762512
 C         -6.446537    0.029615    0.217444
 S         -5.053244   -0.163864   -0.844091
 C         -6.017738    0.239849    1.547501
 C         -3.952668   -0.004764    0.486960
 C         -4.638532    0.229133    1.689122
 H         -6.709387    0.391138    2.368642
 C         -2.487321    0.030478    0.264437
 H         -4.115527    0.368360    2.626620
 C         -1.888748    1.251529   -0.006368
 C         -1.696128   -1.147890    0.317548
 C         -0.504800    1.350864   -0.230847
 H         -2.473314    2.163399   -0.056392
 C         -0.299445   -1.065978    0.095734
 C         -2.309476   -2.434336    0.608290
 C          0.319113    0.196662   -0.182240
 C          0.061304    2.665181   -0.523909
 C          0.505016   -2.228531    0.135839
 N         -1.479475   -3.553796    0.630045
 O         -3.526199   -2.564984    0.831246
 C          1.720202    0.276953   -0.405308
 N          1.436541    2.687874   -0.788481
 O         -0.614632    3.700000   -0.552976
 C          1.890033   -2.123934   -0.059010
 C         -0.085089   -3.538571    0.406637
 C         -2.125113   -4.837622    0.915944
 C          2.515424   -0.904051   -0.314516
 C          2.293556    1.570405   -0.802709
 C          2.054441    3.968417   -1.142613
 H          2.484900   -3.026635    0.019059
 O          0.566524   -4.584598    0.446605
 H         -2.894499   -5.042703    0.167327
 H         -1.355029   -5.604808    0.891264
 H         -2.601295   -4.805278    1.899163
 C          3.991265   -0.938013   -0.437724
 O          3.464580    1.733830   -1.150157
 H          2.410271    3.942779   -2.176190
 H          1.300621    4.742585   -1.021479
 H          2.911466    4.156130   -0.492180
 S          5.040461   -0.245558    0.779806
 C          4.729544   -1.618299   -1.375767
 C          6.478107   -0.871714   -0.009944
 C          6.130176   -1.572666   -1.145573
 H          4.272803   -2.132293   -2.214429
 H          6.859069   -2.060548   -1.784362
 C          7.794241   -0.628283    0.538392
 S          9.223483   -0.793555   -0.459817
 C          8.145296   -0.251643    1.821505
 C         10.285253   -0.367476    0.867387
 C          9.538381   -0.086121    1.995958
 H          7.420039   -0.116302    2.616217
 C         11.730140   -0.150257    0.721873
 H          9.990380    0.201110    2.939437
 C         12.219141    1.059240    1.288848
 C         12.653862   -0.970426    0.044563
 C         13.523727    1.476796    1.151006
 H         11.533348    1.706065    1.823139
 C         13.995442   -0.528058   -0.140049
 C         12.314290   -2.354825   -0.386639
 C         14.450635    0.706062    0.404053
 C         13.922463    2.765718    1.769857
 C         14.922063   -1.298023   -0.885419
 N         13.237647   -3.032538   -1.201519
 O         11.288585   -2.932671   -0.056028
 C         15.789371    1.147392    0.220055
 N         15.222319    3.195706    1.497808
 O         13.158915    3.424345    2.464599
 C         16.226450   -0.871674   -1.035583
 C         14.527360   -2.591203   -1.496055
 C         12.823974   -4.357624   -1.681421
 C         16.704279    0.338467   -0.475583
 C         16.151024    2.515962    0.692635
 C         15.647425    4.506722    2.005890
 H         16.913328   -1.506269   -1.583545
 O         15.289137   -3.246022   -2.197450
 H         11.848071   -4.280471   -2.163428
 H         13.576029   -4.703084   -2.386352
 H         12.743941   -5.054230   -0.842837
 C         18.146800    0.601125   -0.653993
 O         17.200498    3.072638    0.405743
 H         15.776579    5.207020    1.176759
 H         14.876460    4.864139    2.683825
 H         16.601504    4.403250    2.525616
 S         19.256995    0.747628    0.692016
 C         18.837080    0.592848   -1.843369
 C         20.622001    0.824586   -0.372399
 C         20.246421    0.739694   -1.684973
 H         18.343504    0.503014   -2.805357
 H         21.618522    0.925907    0.036754
 H         20.946246    0.775952   -2.512558
