        92
S0: Total Energy = -7042.02801449
 C         13.601172    1.140820   -0.093442
 C         12.230426    0.730536   -0.095043
 C         11.116726    1.547455    0.078738
 C         14.101237    2.435111   -0.182421
 C         10.996408    3.000455    0.284700
 C         13.374817    3.712711   -0.346464
 N         12.059122    3.898771    0.148543
 O         13.957320    4.676130   -0.823663
 O          9.875616    3.443211    0.550385
 C          9.924028    0.768344    0.077502
 C         15.538776    2.421925   -0.170262
 C         16.103668    1.187204   -0.071642
 C         10.115466   -0.589422   -0.106828
 S         11.798562   -0.969722   -0.299652
 S         14.889022   -0.039457    0.005960
 C         11.666594    5.316622    0.303541
 H         10.968674    5.389131    1.134554
 H         12.562982    5.901523    0.491591
 H         11.179823    5.685837   -0.603919
 S          8.241821    1.149791    0.273091
 C          8.923834   -1.369074   -0.108079
 C          7.808484   -0.551959    0.071148
 C          9.043957   -2.819632   -0.321034
 C          6.442286   -0.960732    0.082981
 N          7.976742   -3.717775   -0.204988
 O         10.165414   -3.263332   -0.581882
 C          5.938003   -2.255458    0.161411
 S          5.158292    0.229213    0.025769
 C          6.662910   -3.540195    0.292457
 C          8.366215   -5.134233   -0.382193
 C          4.510599   -2.237858    0.178500
 C          3.912557   -0.998824    0.112000
 O          6.075855   -4.511905    0.746385
 H          7.470800   -5.711438   -0.597007
 H          9.077340   -5.192181   -1.202865
 H          8.836140   -5.523823    0.525554
 H         17.155278    0.944845   -0.024908
 F         16.278024    3.532128   -0.210732
 F          3.764022   -3.346839    0.219707
 C          2.512752   -0.665127    0.095765
 C          1.946935    0.598302    0.048138
 S          1.265540   -1.900683    0.143905
 C          0.538354    0.585449    0.049835
 H          2.531011    1.511743    0.016369
 C         -0.004149   -0.688216    0.098859
 H         -0.062330    1.488096    0.019408
 C         -1.397508   -1.047491    0.118259
 C         -1.972649   -2.297345    0.184085
 S         -2.665812    0.157766    0.036549
 C         -3.399469   -2.341229    0.169462
 F         -1.205900   -3.392608    0.221836
 C         -3.927837   -1.055764    0.093716
 C         -4.100269   -3.639017    0.300771
 C         -5.300958   -0.672456    0.083035
 N         -5.410744   -3.840757   -0.196709
 O         -3.495339   -4.599610    0.755024
 C         -6.401224   -1.509932   -0.098576
 S         -5.766538    1.020729    0.286941
 C         -6.494056   -2.962309   -0.313376
 C         -5.774850   -5.263816   -0.374861
 C         -7.606633   -0.752991   -0.098001
 C         -7.441134    0.608266    0.089036
 O         -7.606759   -3.426750   -0.575777
 H         -6.478558   -5.335022   -1.200976
 H         -4.868222   -5.826118   -0.581763
 H         -6.245517   -5.659893    0.529693
 S         -9.282223   -1.164941   -0.294239
 C         -8.646799    1.365532    0.091740
 C         -9.747249    0.528090   -0.087468
 C         -8.553606    2.817337    0.306262
 C        -11.120803    0.910816   -0.091063
 N         -9.637692    3.695207    0.192999
 O         -7.439831    3.282313    0.564719
 C        -11.650431    2.195276   -0.163051
 S        -12.383199   -0.301761   -0.024778
 C        -10.950445    3.492574   -0.299417
 C         -9.274181    5.118529    0.368981
 C        -13.078360    2.150713   -0.166855
 C        -13.652076    0.901967   -0.095747
 O        -11.556258    4.453276   -0.752637
 H        -10.179848    5.679454    0.583954
 H         -8.563644    5.190239    1.189131
 H         -8.811938    5.516209   -0.539253
 F        -13.844339    3.248142   -0.197306
 C        -15.047635    0.537942   -0.060279
 C        -15.589592   -0.732576   -0.010283
 S        -16.327865    1.744633   -0.076373
 C        -17.009715   -0.741904    0.015634
 H        -14.986770   -1.634709    0.005184
 C        -17.547458    0.517367   -0.014873
 H        -17.604619   -1.647381    0.054379
 H        -18.591332    0.801519   -0.006597
        92
T1: Total Energy = -7041.98263920
 C        -13.562900    1.164775    0.002555
 C        -12.197432    0.745630    0.019218
 C        -11.072911    1.559292   -0.113457
 C        -14.057589    2.461628    0.105338
 C        -10.938972    3.015768   -0.284742
 C        -13.327433    3.731725    0.303477
 N        -11.999635    3.917618   -0.159579
 O        -13.913757    4.691754    0.783113
 O         -9.809035    3.456630   -0.512552
 C         -9.887488    0.774428   -0.106589
 C        -15.494290    2.456674    0.070314
 C        -16.064995    1.226877   -0.057065
 C        -10.090434   -0.589654    0.042091
 S        -11.779923   -0.963433    0.190668
 S        -14.857103   -0.006280   -0.135043
 C        -11.595882    5.335504   -0.281916
 H        -10.876490    5.417139   -1.093533
 H        -12.484037    5.928341   -0.483704
 H        -11.130707    5.687893    0.643384
 S         -8.199828    1.153317   -0.254253
 C         -8.909295   -1.376321    0.054898
 C         -7.777017   -0.560149   -0.083332
 C         -9.046303   -2.826165    0.245736
 C         -6.424836   -0.970316   -0.080207
 N         -7.976587   -3.729944    0.187501
 O        -10.181270   -3.267469    0.447385
 C         -5.918760   -2.279126   -0.142017
 S         -5.133712    0.222098   -0.022105
 C         -6.646365   -3.565688   -0.263704
 C         -8.376220   -5.143890    0.363303
 C         -4.506353   -2.268554   -0.142380
 C         -3.887980   -1.019003   -0.079024
 O         -6.046314   -4.549433   -0.673062
 H         -7.499404   -5.713857    0.659742
 H         -9.148424   -5.186315    1.127313
 H         -8.772560   -5.554957   -0.569725
 H        -17.117255    0.992256   -0.124240
 F        -16.228626    3.569804    0.116938
 F         -3.755592   -3.370765   -0.169055
 C         -2.509001   -0.715216   -0.049507
 C         -1.926737    0.567872    0.002617
 S         -1.258641   -1.961789   -0.076132
 C         -0.544490    0.557607    0.021408
 H         -2.516626    1.477677    0.023766
 C          0.020424   -0.739658   -0.015255
 H          0.060342    1.456660    0.059250
 C          1.383902   -1.057231   -0.008629
 C          1.989060   -2.330583   -0.053379
 S          2.651125    0.168815    0.069195
 C          3.384992   -2.379606   -0.019841
 F          1.198998   -3.401902   -0.101326
 C          3.929867   -1.060273    0.046318
 C          4.077970   -3.686765   -0.087097
 C          5.262933   -0.680100    0.056573
 N          5.433856   -3.862733    0.281122
 O          3.435787   -4.684119   -0.391291
 C          6.405464   -1.527660    0.110434
 S          5.720981    1.046181   -0.020443
 C          6.525764   -2.982353    0.231877
 C          5.814303   -5.280473    0.465643
 C          7.584678   -0.766151    0.089948
 C          7.405973    0.621918    0.030452
 O          7.665237   -3.454480    0.309630
 H          6.673528   -5.317395    1.130189
 H          4.966766   -5.811040    0.892384
 H          6.079878   -5.742597   -0.489767
 S          9.270906   -1.182649    0.143798
 C          8.594755    1.377616    0.020201
 C          9.722204    0.534531    0.063123
 C          8.482547    2.841321   -0.073255
 C         11.077016    0.922410    0.032162
 N          9.573605    3.716437   -0.028246
 O          7.348149    3.315815   -0.183977
 C         11.615214    2.213404    0.134221
 S         12.343764   -0.289065   -0.116626
 C         10.927108    3.504924    0.340004
 C          9.198147    5.144749   -0.117239
 C         13.036676    2.165522    0.087261
 C         13.611786    0.917380   -0.048696
 O         11.565690    4.463702    0.753901
 H         10.070718    5.709729   -0.434646
 H          8.387054    5.239492   -0.834990
 H          8.862004    5.520522    0.853663
 F         13.811683    3.254818    0.133432
 C         15.002110    0.563266   -0.143560
 C         15.544964   -0.704508   -0.269193
 S         16.283369    1.770863   -0.109252
 C         16.961897   -0.709318   -0.337140
 H         14.942002   -1.605652   -0.309949
 C         17.499886    0.549358   -0.263686
 H         17.556539   -1.610353   -0.436060
 H         18.543189    0.834582   -0.290210
        92
S1: Total Energy = -7041.96491435
 C        -13.555983    1.166422    0.063529
 C        -12.196638    0.747309    0.059335
 C        -11.066332    1.561062   -0.072349
 C        -14.055048    2.467209    0.155398
 C        -10.930756    3.017013   -0.239976
 C        -13.329804    3.743965    0.304053
 N        -11.995669    3.917732   -0.151386
 O        -13.919926    4.723695    0.739877
 O         -9.796207    3.458606   -0.446094
 C         -9.885297    0.777657   -0.073667
 C        -15.491765    2.453471    0.159551
 C        -16.061625    1.219411    0.069787
 C        -10.088015   -0.592375    0.064372
 S        -11.778144   -0.966751    0.212517
 S        -14.852514   -0.012460   -0.017857
 C        -11.594194    5.332942   -0.305556
 H        -10.852521    5.393067   -1.098666
 H        -12.478600    5.915127   -0.550239
 H        -11.156863    5.716801    0.620900
 S         -8.197761    1.158481   -0.219777
 C         -8.912731   -1.378482    0.070466
 C         -7.773304   -0.560819   -0.065288
 C         -9.052404   -2.826996    0.254548
 C         -6.428765   -0.970653   -0.077624
 N         -7.978923   -3.729788    0.232488
 O        -10.191693   -3.270850    0.430299
 C         -5.919127   -2.284191   -0.124234
 S         -5.136888    0.226737   -0.066058
 C         -6.641054   -3.574980   -0.201728
 C         -8.377598   -5.140574    0.431375
 C         -4.507591   -2.266500   -0.150638
 C         -3.891579   -1.014716   -0.120796
 O         -6.033429   -4.573712   -0.564347
 H         -7.510647   -5.696732    0.779010
 H         -9.179999   -5.166639    1.164144
 H         -8.732930   -5.581260   -0.504794
 H        -17.114760    0.981678    0.035171
 F        -16.233703    3.561596    0.207901
 F         -3.749661   -3.363149   -0.171943
 C         -2.511688   -0.708357   -0.116808
 C         -1.931206    0.572692   -0.091620
 S         -1.261833   -1.951864   -0.141664
 C         -0.543913    0.560012   -0.089487
 H         -2.519677    1.483295   -0.075643
 C          0.013252   -0.732264   -0.113367
 H          0.061337    1.459503   -0.071766
 C          1.385214   -1.062902   -0.113997
 C          1.978368   -2.328343   -0.148614
 S          2.653182    0.155372   -0.051086
 C          3.386676   -2.376372   -0.119186
 F          1.195433   -3.406542   -0.178851
 C          3.924326   -1.068958   -0.064017
 C          4.080175   -3.681322   -0.196669
 C          5.269779   -0.684940   -0.047663
 N          5.425188   -3.862461    0.208361
 O          3.446348   -4.671710   -0.538066
 C          6.400669   -1.527659    0.054408
 S          5.726151    1.033391   -0.160784
 C          6.516605   -2.982066    0.205276
 C          5.799474   -5.281520    0.395194
 C          7.585718   -0.766410    0.049898
 C          7.408107    0.616149   -0.050768
 O          7.652069   -3.450482    0.338689
 H          6.626508   -5.324630    1.099143
 H          4.933457   -5.818132    0.774483
 H          6.111208   -5.731342   -0.552117
 S          9.269648   -1.179478    0.160929
 C          8.597617    1.374880   -0.049980
 C          9.722199    0.534780    0.047887
 C          8.485982    2.834033   -0.189197
 C         11.077118    0.923570    0.052630
 N          9.575007    3.711495   -0.148686
 O          7.353397    3.302508   -0.341115
 C         11.611525    2.218728    0.133802
 S         12.347832   -0.291988   -0.010867
 C         10.918250    3.516306    0.265681
 C          9.202210    5.134970   -0.301444
 C         13.033267    2.169338    0.143220
 C         13.612995    0.916760    0.067827
 O         11.544355    4.493093    0.657061
 H         10.081492    5.687186   -0.622879
 H          8.405971    5.201132   -1.038724
 H          8.846831    5.548970    0.646829
 F         13.808249    3.258082    0.185893
 C         15.003855    0.562761    0.036581
 C         15.552221   -0.709067   -0.028675
 S         16.283809    1.773014    0.080297
 C         16.969235   -0.713583   -0.043839
 H         14.951238   -1.611716   -0.062989
 C         17.504070    0.548732    0.009704
 H         17.568081   -1.615945   -0.091975
 H         18.547821    0.833707    0.012831
