       104
S0: Total Energy = -6571.80467693
 C          5.814032    0.457633   -0.192080
 C          6.678090    1.327726   -0.869070
 C          8.029204    1.017068   -0.698945
 C          8.229693   -0.100757    0.112416
 S          6.754281   -0.807821    0.649668
 C         17.961375   -0.745207    0.115687
 C         17.146590   -1.619865    0.792349
 C         15.772278   -1.306484    0.622852
 C         15.571401   -0.196610   -0.182057
 S         17.061144    0.483672   -0.745745
 C         14.159346    0.051286   -0.299746
 C         13.471254   -0.905971    0.434276
 C         12.078255   -0.703622    0.357026
 C         11.714359    0.404700   -0.436379
 C          9.631837   -0.354152    0.220610
 C         10.323572    0.604678   -0.515861
 S         10.666447   -1.514252    1.021983
 S         13.130762    1.212272   -1.099710
 H         17.531042   -2.445569    1.381515
 H          6.321854    2.144562   -1.481190
 H         19.041877   -0.739743    0.064812
 C         14.439914   -1.880796    1.101503
 C          9.361768    1.584366   -1.184420
 C         14.320127   -1.831857    2.641373
 H         13.329945   -2.174825    2.962708
 H         15.069348   -2.485394    3.101661
 H         14.471175   -0.815202    3.016839
 C         14.230402   -3.324514    0.590837
 H         13.239999   -3.696381    0.877275
 H         14.314800   -3.373434   -0.499068
 H         14.980821   -3.993811    1.025936
 C          9.581857    3.028264   -0.678192
 H          9.501570    3.080932    0.411771
 H         10.573680    3.391920   -0.969559
 H          8.833511    3.700122   -1.111814
 C          9.478435    1.529009   -2.724433
 H          8.734035    2.187654   -3.184711
 H         10.470879    1.863254   -3.047211
 H          9.318986    0.512525   -3.096985
 C          4.373606    0.516249   -0.108196
 C          3.583194   -0.652051    0.210897
 C          3.605275    1.675611   -0.328029
 C          2.134723   -0.624718    0.268292
 C          2.156010    1.687797   -0.319138
 C          1.370390    0.570347    0.002784
 N          4.093723   -1.852644    0.480611
 N          1.600558   -1.803444    0.587992
 S          2.837800   -2.863387    0.790803
 C          4.229262    2.944447   -0.537722
 N          4.703860    3.997283   -0.689217
 C          1.545500    2.923419   -0.705535
 N          1.081002    3.936139   -1.043425
 C         -0.077779    0.580290    0.077403
 C         -0.921103    1.663095    0.334361
 S         -1.033924   -0.894040   -0.222041
 C         -2.281562    1.335322    0.265288
 H         -0.549101    2.648107    0.581288
 C         -2.498587   -0.005164   -0.044039
 C         -3.908070   -0.253839   -0.076049
 C         -3.603719    2.075384    0.456518
 C         -4.583480    0.931087    0.205446
 S         -4.954919   -1.617433   -0.382842
 C         -3.775308    3.206316   -0.583451
 C         -3.739048    2.634132    1.891291
 C         -5.977319    0.740920    0.173746
 C         -6.356785   -0.585777   -0.128609
 H         -4.759688    3.677105   -0.482575
 H         -3.013367    3.978365   -0.432987
 H         -3.679434    2.822281   -1.603483
 H         -4.723021    3.094425    2.035278
 H         -3.616133    1.842782    2.637015
 H         -2.978322    3.401232    2.071895
 S         -7.377541    1.773189    0.430521
 C         -7.749887   -0.777092   -0.152404
 C         -8.426466    0.408318    0.129666
 C         -8.726896   -1.923225   -0.404277
 C         -9.833386    0.161661    0.082864
 C         -8.582756   -2.487388   -1.836317
 C         -8.559083   -3.049576    0.641094
 C        -10.050161   -1.182686   -0.223796
 S        -11.294987    1.033136    0.341281
 H         -8.701371   -1.698612   -2.585245
 H         -7.597694   -2.947627   -1.972425
 H         -9.343100   -3.253908   -2.019460
 H         -9.314839   -3.826737    0.484613
 H         -7.571762   -3.515876    0.550249
 H         -8.665294   -2.663212    1.659359
 C        -11.406260   -1.511566   -0.281060
 C        -12.254946   -0.428433   -0.019793
 H        -11.774565   -2.507628   -0.483735
 C        -13.699804   -0.403968   -0.044591
 C        -14.448600    0.619017    0.659524
 C        -14.495085   -1.345433   -0.731741
 C        -15.897268    0.633289    0.688591
 N        -13.906237    1.625337    1.345933
 C        -15.943769   -1.324101   -0.671946
 C        -13.927751   -2.348906   -1.573396
 C        -16.647444   -0.365604    0.019041
 N        -16.414037    1.648020    1.390358
 S        -15.142244    2.513706    1.963991
 C        -16.685481   -2.334467   -1.371206
 N        -13.514565   -3.176085   -2.282092
 H        -17.729743   -0.361245    0.049830
 N        -17.311288   -3.142656   -1.925545
       104
T1: Total Energy = -6571.77744627
 C         -5.775777    0.619329   -0.406777
 C         -6.649564    1.650988    0.017460
 C         -7.973828    1.255094    0.105612
 C         -8.170125   -0.095887   -0.235089
 S         -6.696622   -0.901413   -0.654030
 C        -17.767573   -1.023080    1.019797
 C        -16.955399   -2.053727    0.608706
 C        -15.600769   -1.650993    0.506267
 C        -15.410069   -0.316366    0.843323
 S        -16.890763    0.465060    1.291066
 C        -14.021367    0.006568    0.714717
 C        -13.328211   -1.131192    0.293838
 C        -11.960146   -0.867671    0.151525
 C        -11.605131    0.471318    0.463191
 C         -9.540306   -0.409248   -0.100014
 C        -10.241455    0.735403    0.323262
 S        -10.556032   -1.816267   -0.327169
 S        -13.015362    1.413755    0.942824
 H        -17.329677   -3.048743    0.394028
 H         -6.302405    2.642466    0.267059
 H        -18.836829   -1.040717    1.183137
 C        -14.280972   -2.312275    0.117001
 C         -9.292175    1.918458    0.499838
 C        -14.306810   -2.805419   -1.347781
 H        -13.332234   -3.215689   -1.634931
 H        -15.054374   -3.597149   -1.466695
 H        -14.554441   -1.990675   -2.034887
 C        -13.928340   -3.475086    1.072227
 H        -12.947823   -3.896089    0.823377
 H        -13.905521   -3.138582    2.113138
 H        -14.671464   -4.275014    0.983757
 C         -9.647566    3.081332   -0.454269
 H         -9.673267    2.745428   -1.495234
 H        -10.627538    3.501190   -0.201597
 H         -8.903547    3.880113   -0.368145
 C         -9.262906    2.410290    1.964831
 H         -8.516835    3.203576    2.080926
 H        -10.237710    2.818225    2.254140
 H         -9.011526    1.596058    2.651242
 C         -4.364819    0.674490   -0.615440
 C         -3.575379   -0.523593   -0.778690
 C         -3.602130    1.888879   -0.695684
 C         -2.125505   -0.495101   -0.833226
 C         -2.186620    1.921623   -0.752785
 C         -1.369957    0.733106   -0.726645
 N         -4.085436   -1.746162   -0.873223
 N         -1.576544   -1.696454   -0.966853
 S         -2.812996   -2.811339   -1.031533
 C         -4.252804    3.157810   -0.810067
 N         -4.755264    4.203392   -0.916812
 C         -1.604191    3.214020   -0.925733
 N         -1.156910    4.279476   -1.078823
 C          0.047385    0.729867   -0.614195
 C          0.914442    1.807534   -0.291645
 S          1.003853   -0.773661   -0.851028
 C          2.250965    1.455316   -0.261748
 H          0.551644    2.800078   -0.070855
 C          2.470981    0.094047   -0.549413
 C          3.854574   -0.171787   -0.478066
 C          3.567663    2.175687    0.023143
 C          4.541848    1.012467   -0.147627
 S          4.898445   -1.559670   -0.692903
 C          3.602618    2.743633    1.460086
 C          3.835413    3.294960   -1.008958
 C          5.916631    0.794427   -0.068374
 C          6.296766   -0.550068   -0.334652
 H          4.577740    3.195041    1.673911
 H          2.838620    3.519616    1.576756
 H          3.415111    1.959875    2.200281
 H          4.818335    3.748597   -0.839033
 H          3.807262    2.905226   -2.030960
 H          3.078188    4.080760   -0.918627
 S          7.316359    1.802014    0.290591
 C          7.674097   -0.766429   -0.253185
 C          8.356272    0.413765    0.076706
 C          8.646730   -1.932599   -0.415658
 C          9.747986    0.137740    0.159129
 C          8.364999   -3.051399    0.613350
 C          8.621517   -2.499937   -1.853375
 C          9.962606   -1.216791   -0.120401
 S         11.212221    0.998983    0.455175
 H          8.384574   -2.662274    1.635771
 H          7.382187   -3.501249    0.433493
 H          9.119772   -3.840321    0.530035
 H          9.383324   -3.278985   -1.964134
 H          7.646554   -2.947692   -2.075061
 H          8.817721   -1.716600   -2.591758
 C         11.308864   -1.572474   -0.069118
 C         12.159278   -0.503081    0.253165
 H         11.674010   -2.568194   -0.277035
 C         13.590730   -0.529174    0.436275
 C         14.379370    0.686093    0.369886
 C         14.338483   -1.703401    0.688229
 C         15.823534    0.678205    0.497266
 N         13.882080    1.908250    0.181979
 C         15.782395   -1.688372    0.796183
 C         13.719894   -2.970084    0.906295
 C         16.527274   -0.534638    0.701232
 N         16.382005    1.889645    0.404550
 S         15.151434    2.955682    0.175631
 C         16.478098   -2.922625    1.025514
 N         13.261804   -4.023184    1.104275
 H         17.606464   -0.542447    0.787903
 N         17.069124   -3.907227    1.208532
       104
S1: Total Energy = -6571.76177527
 C         -5.808756    0.480090    0.336604
 C         -6.702618    1.409273    0.880927
 C         -8.043657    1.071951    0.674869
 C         -8.200339   -0.129344   -0.022986
 S         -6.693755   -0.879664   -0.405759
 C        -17.890404   -0.806034   -0.488806
 C        -17.041804   -1.747655   -1.025560
 C        -15.682880   -1.415361   -0.813428
 C        -15.524520   -0.220775   -0.115531
 S        -17.043248    0.509947    0.288908
 C        -14.131364    0.042567    0.054622
 C        -13.397936   -0.991365   -0.538655
 C        -12.021350   -0.777185   -0.404113
 C        -11.699657    0.417826    0.291223
 C         -9.588640   -0.400409   -0.170440
 C        -10.325065    0.634283    0.425150
 S        -10.572438   -1.646457   -0.898953
 S        -13.151187    1.286596    0.784748
 H        -17.396546   -2.630757   -1.545417
 H         -6.376510    2.288095    1.419447
 H        -18.972199   -0.801012   -0.500576
 C        -14.329325   -2.032300   -1.156781
 C         -9.396261    1.681858    1.034781
 C        -14.126469   -2.134654   -2.685842
 H        -13.122690   -2.507499   -2.917949
 H        -14.853627   -2.830790   -3.117277
 H        -14.252589   -1.160385   -3.167534
 C        -14.153546   -3.417436   -0.493266
 H        -13.152124   -3.815933   -0.690436
 H        -14.294287   -3.357831    0.590169
 H        -14.884062   -4.125835   -0.898553
 C         -9.586585    3.066081    0.373419
 H         -9.463022    3.006209   -0.712037
 H        -10.585636    3.461990    0.587276
 H         -8.850057    3.775458    0.764973
 C         -9.584223    1.781766    2.565888
 H         -8.858817    2.484216    2.989744
 H        -10.588746    2.146319    2.807805
 H         -9.444983    0.808566    3.046271
 C         -4.360051    0.543145    0.297035
 C         -3.558244   -0.645812    0.203064
 C         -3.620298    1.743459    0.346342
 C         -2.110455   -0.602171    0.189921
 C         -2.184841    1.799131    0.354962
 C         -1.364373    0.636837    0.246989
 N         -4.055945   -1.881547    0.126667
 N         -1.548641   -1.806822    0.113739
 S         -2.770762   -2.923029    0.050050
 C         -4.288902    3.010708    0.336788
 N         -4.804368    4.054179    0.309676
 C         -1.629884    3.101983    0.520015
 N         -1.211762    4.179598    0.673890
 C          0.066733    0.645496    0.181559
 C          0.935805    1.745058   -0.004501
 S          1.023975   -0.865989    0.340337
 C          2.278948    1.404209    0.008251
 H          0.578298    2.751676   -0.159994
 C          2.493859    0.027861    0.200598
 C          3.883993   -0.228249    0.187985
 C          3.602833    2.149282   -0.147899
 C          4.575339    0.980637   -0.010444
 S          4.928941   -1.621951    0.355998
 C          3.806131    3.190876    0.976021
 C          3.715530    2.820329   -1.535963
 C          5.955372    0.779063   -0.027395
 C          6.333520   -0.579117    0.156538
 H          4.794466    3.656874    0.895172
 H          3.051394    3.980554    0.899667
 H          3.722743    2.727994    1.963900
 H          4.700092    3.284241   -1.661486
 H          3.571893    2.092475   -2.340255
 H          2.957263    3.603796   -1.638565
 S          7.363655    1.818217   -0.231910
 C          7.716094   -0.781774    0.132453
 C          8.402206    0.423518   -0.069912
 C          8.692991   -1.948332    0.264088
 C          9.802350    0.167442   -0.080959
 C          8.588131   -2.623677    1.650771
 C          8.489536   -2.987802   -0.861539
 C         10.014889   -1.200511    0.105854
 S         11.269566    1.046568   -0.312383
 H          8.728385   -1.896178    2.455886
 H          7.607270   -3.095404    1.777695
 H          9.353467   -3.400399    1.751277
 H          9.245986   -3.776461   -0.788750
 H          7.502958   -3.457505   -0.779126
 H          8.568694   -2.522541   -1.848764
 C         11.368271   -1.545736    0.090198
 C         12.221152   -0.450549   -0.102845
 H         11.730908   -2.558220    0.196442
 C         13.668463   -0.438342   -0.123087
 C         14.398322    0.656535   -0.723641
 C         14.474543   -1.467441    0.424439
 C         15.846927    0.661353   -0.809740
 N         13.839423    1.745477   -1.253861
 C         15.914718   -1.448205    0.315057
 C         13.927595   -2.556789    1.163990
 C         16.603508   -0.417541   -0.291543
 N         16.354738    1.747344   -1.402780
 S         15.068789    2.699370   -1.814766
 C         16.673199   -2.533748    0.865942
 N         13.529826   -3.459047    1.786143
 H         17.684054   -0.420252   -0.361829
 N         17.315359   -3.401324    1.299910
