       108
S0: Total Energy = -6872.70509249
 C          5.684054    1.220728   -0.414972
 C          6.557784    2.180578   -0.920828
 C          7.904273    1.788802   -0.865622
 C          8.098104    0.529021   -0.306063
 S          6.587007   -0.218750    0.100047
 C         17.638181   -2.090650    0.328469
 C         16.807893   -3.049979    0.841127
 C         15.447365   -2.630727    0.828152
 C         15.259006   -1.364899    0.300106
 S         16.783520   -0.658947   -0.173788
 C         13.920532   -0.887881    0.144402
 C         12.872366   -1.593286    0.717037
 C         11.629107   -0.989628    0.398421
 C         11.723591    0.160097   -0.399856
 C          9.432159    0.060473   -0.139992
 C         10.483207    0.766789   -0.712265
 S          9.957974   -1.335838    0.789109
 S         13.398216    0.502969   -0.789629
 H         17.137351   -4.011394    1.216488
 H          6.249861    3.129935   -1.334074
 H         18.715060   -2.123906    0.235840
 O         14.421176   -3.425719    1.220565
 O          8.931425    2.587648   -1.246291
 C         13.169953   -2.772840    1.637778
 C         10.194296    1.945504   -1.636483
 C         13.347983   -2.293553    3.086580
 H         12.428476   -1.819371    3.445209
 H         13.582445   -3.143039    3.736794
 H         14.158988   -1.562117    3.155121
 C         12.133395   -3.891803    1.542093
 H         11.174487   -3.576747    1.964144
 H         11.982170   -4.198784    0.503419
 H         12.484563   -4.754876    2.115560
 C         11.220126    3.072165   -1.514914
 H         11.345228    3.377500   -0.472425
 H         12.190553    2.765442   -1.915953
 H         10.874181    3.933599   -2.093720
 C         10.054638    1.464394   -3.089181
 H          9.830051    2.313337   -3.743262
 H         10.984782    0.996038   -3.427051
 H          9.249661    0.728213   -3.177353
 C          4.246136    1.302844   -0.281455
 C          3.422344    0.117997   -0.210268
 C          3.520641    2.506254   -0.211992
 C          1.978798    0.177512   -0.092862
 C          2.075103    2.562341   -0.138737
 C          1.258761    1.425744   -0.044484
 N          3.892205   -1.128414   -0.246121
 N          1.407215   -1.025465   -0.034088
 S          2.606522   -2.141917   -0.130515
 C          4.188569    3.769931   -0.167664
 N          4.697839    4.815412   -0.109275
 C          1.500474    3.871795   -0.212032
 N          1.066573    4.948465   -0.297614
 C         -0.184843    1.466044    0.101654
 C         -0.961401    2.483423    0.642120
 S         -1.210777    0.154660   -0.501912
 C         -2.342271    2.228482    0.555482
 H         -0.563801    3.374655    1.106113
 C         -2.649046    1.012630   -0.045049
 O         -3.283620    3.042115    1.090763
 C         -4.014927    0.610203   -0.094145
 C         -4.647512    2.969271    0.545294
 C         -5.009505    1.515974    0.255235
 S         -4.631879   -0.980356   -0.509418
 C         -4.686158    3.800677   -0.746040
 C         -5.505044    3.597213    1.643716
 C         -6.285981    0.908644    0.179134
 C         -6.272240   -0.436375   -0.225104
 H         -5.693829    3.792480   -1.174430
 H         -4.402828    4.836258   -0.531592
 H         -3.994910    3.393564   -1.490258
 H         -6.536150    3.737905    1.306562
 H         -5.505470    2.976710    2.544171
 H         -5.097701    4.580802    1.895269
 S         -7.924943    1.452593    0.466240
 C         -7.548318   -1.043273   -0.300131
 C         -8.542673   -0.138874    0.053990
 C         -7.905920   -2.498491   -0.586707
 C         -9.907355   -0.542948    0.009611
 O         -9.276108   -2.582007   -1.113222
 C         -7.059200   -3.119312   -1.697702
 C         -7.842102   -3.329093    0.704299
 C        -10.215542   -1.766469   -0.577741
 S        -11.334880    0.269785    0.564224
 H         -7.075703   -2.497521   -2.596982
 H         -6.022556   -3.253345   -1.375214
 H         -7.463742   -4.105042   -1.945299
 H         -8.117093   -4.367689    0.493283
 H         -6.829507   -3.310776    1.120442
 H         -8.527963   -2.928260    1.457070
 C        -11.593582   -2.031404   -0.634658
 C        -12.369875   -1.019402   -0.077229
 H        -11.989134   -2.943305   -1.057967
 C        -13.814886   -0.944575   -0.000774
 C        -14.474632   -0.124737    0.994123
 C        -14.682985   -1.639916   -0.864649
 C        -15.917624   -0.063430    1.106218
 N        -13.851005    0.636854    1.894385
 C        -16.125172   -1.579954   -0.723080
 C        -14.201874   -2.407237   -1.968832
 C        -16.746379   -0.814479    0.235971
 N        -16.350259    0.743686    2.081474
 S        -15.011999    1.372095    2.793821
 C        -16.947204   -2.335767   -1.624520
 N        -13.864155   -3.034996   -2.889775
 H        -17.824737   -0.774688    0.325558
 N        -17.637471   -2.939805   -2.339091
       108
T1: Total Energy = -6872.68032648
 C          5.668052    1.495480   -0.266286
 C          6.582984    2.505422    0.082329
 C          7.902397    2.066110    0.135666
 C          8.059667    0.696841   -0.150811
 S          6.524718   -0.057872   -0.493222
 C         17.371991   -2.512913    0.595398
 C         16.512694   -3.517755    0.240808
 C         15.161521   -3.074711    0.233973
 C         15.011812   -1.735121    0.575169
 S         16.560724   -1.009490    0.930071
 C         13.716914   -1.156764    0.489890
 C         12.608611   -1.977271    0.272153
 C         11.433972   -1.209338    0.161287
 C         11.623237    0.183464    0.298767
 C          9.336614    0.128615   -0.029954
 C         10.453877    0.951664    0.192708
 S          9.741604   -1.583575   -0.100342
 S         13.319820    0.551548    0.554909
 H         16.815398   -4.529097   -0.001659
 H          6.309244    3.523323    0.311044
 H         18.446354   -2.568781    0.706012
 O         14.129932   -3.858227   -0.147374
 O          8.927474    2.851058    0.522818
 C         12.773617   -3.493166    0.297967
 C         10.300972    2.465999    0.162627
 C         12.595066   -4.027198    1.727429
 H         11.588255   -3.801838    2.093602
 H         12.739962   -5.112319    1.741449
 H         13.317832   -3.565333    2.406899
 C         11.864009   -4.219053   -0.692562
 H         10.816167   -4.153704   -0.385473
 H         11.967568   -3.803136   -1.698528
 H         12.138776   -5.277558   -0.720040
 C         11.158357    3.178796    1.209233
 H         10.983428    2.764757    2.205989
 H         12.222533    3.095248    0.970686
 H         10.898831    4.241320    1.218844
 C         10.570215    3.001832   -1.253180
 H         10.427615    4.086874   -1.271174
 H         11.596874    2.775456   -1.558471
 H          9.887854    2.544181   -1.975826
 C          4.252753    1.588735   -0.442961
 C          3.428965    0.410378   -0.566563
 C          3.521843    2.820498   -0.521843
 C          1.979456    0.477381   -0.606853
 C          2.105782    2.889700   -0.563879
 C          1.258498    1.727209   -0.525916
 N          3.903163   -0.828095   -0.639448
 N          1.398282   -0.711955   -0.708467
 S          2.601723   -1.860262   -0.759423
 C          4.200863    4.073784   -0.644175
 N          4.723306    5.108527   -0.758794
 C          1.559149    4.200078   -0.723658
 N          1.146423    5.280517   -0.865772
 C         -0.162832    1.762607   -0.423870
 C         -1.003722    2.861822   -0.158515
 S         -1.145193    0.282876   -0.639206
 C         -2.355995    2.540084   -0.149913
 H         -0.652957    3.861504    0.043551
 C         -2.619149    1.179411   -0.389819
 O         -3.328436    3.424838    0.160528
 C         -3.947178    0.728724   -0.307970
 C         -4.702336    3.146671   -0.282068
 C         -4.994450    1.655267   -0.181176
 S         -4.497305   -0.943735   -0.310638
 C         -4.825950    3.616842   -1.740529
 C         -5.559427    3.994550    0.658225
 C         -6.231138    0.998112   -0.090310
 C         -6.160106   -0.412256   -0.148745
 H         -5.844564    3.456613   -2.108537
 H         -4.589986    4.683642   -1.807266
 H         -4.137344    3.062444   -2.385387
 H         -6.607742    3.993364    0.345817
 H         -5.493483    3.627493    1.686126
 H         -5.202364    5.028095    0.630332
 S         -7.894541    1.527462    0.069923
 C         -7.400134   -1.067683   -0.054923
 C         -8.441012   -0.142857    0.071808
 C         -7.692631   -2.561215    0.047303
 C         -9.778653   -0.599909    0.143876
 O         -9.062923   -2.838340   -0.409212
 C         -6.828014   -3.410644   -0.884084
 C         -7.581309   -3.027011    1.507374
 C        -10.034723   -1.950513   -0.101024
 S        -11.245020    0.273296    0.464709
 H         -6.884202   -3.044708   -1.912895
 H         -5.782660   -3.410565   -0.562029
 H         -7.186575   -4.443760   -0.858820
 H         -7.812343   -4.094964    1.575055
 H         -6.567232   -2.861369    1.885320
 H         -8.278251   -2.473932    2.144617
 C        -11.397450   -2.276043   -0.080858
 C        -12.222725   -1.184472    0.190165
 H        -11.749428   -3.283196   -0.247300
 C        -13.667637   -1.153821    0.254924
 C        -14.366429   -0.076625    0.926552
 C        -14.506468   -2.136270   -0.315889
 C        -15.811255   -0.044844    1.037032
 N        -13.779319    0.971402    1.504548
 C        -15.948009   -2.092513   -0.179190
 C        -13.999305   -3.209702   -1.107734
 C        -16.604239   -1.079235    0.481774
 N        -16.280846    1.023170    1.690850
 S        -14.972938    1.916744    2.126517
 C        -16.736889   -3.138875   -0.764499
 N        -13.640578   -4.097702   -1.771006
 H        -17.683163   -1.059938    0.570658
 N        -17.401654   -3.973920   -1.225843
       108
S1: Total Energy = -6872.66499964
 C          5.681241    1.390128   -0.022420
 C          6.582891    2.438594   -0.191273
 C          7.921728    2.017105   -0.238055
 C          8.080622    0.637100   -0.107866
 S          6.544188   -0.166227    0.026861
 C         17.523965   -2.306835   -0.191495
 C         16.663688   -3.360637   -0.036681
 C         15.314340   -2.925740    0.066810
 C         15.164141   -1.545093   -0.020487
 S         16.715028   -0.765100   -0.212990
 C         13.849190   -1.007336   -0.037012
 C         12.761806   -1.838011    0.234985
 C         11.549667   -1.126729    0.121050
 C         11.693331    0.230764   -0.229065
 C          9.393831    0.110100   -0.074457
 C         10.483451    0.942292   -0.345405
 S          9.858911   -1.535745    0.330704
 S         13.386720    0.637510   -0.438800
 H         16.965750   -4.399921    0.006881
 H          6.304260    3.476566   -0.292505
 H         18.601976   -2.338408   -0.272189
 O         14.270159   -3.775946    0.159004
 O          8.962199    2.873516   -0.329033
 C         12.997196   -3.269876    0.702264
 C         10.251352    2.369504   -0.827097
 C         13.094572   -3.325013    2.234888
 H         12.157843   -2.983887    2.687290
 H         13.288631   -4.352450    2.559499
 H         13.903195   -2.681642    2.594791
 C         11.961938   -4.259052    0.167273
 H         10.980577   -4.084356    0.617640
 H         11.873194   -4.184003   -0.919983
 H         12.272521   -5.275672    0.425537
 C         11.266180    3.366908   -0.267380
 H         11.320272    3.299979    0.822634
 H         12.262013    3.192717   -0.685193
 H         10.959286    4.380177   -0.542363
 C         10.202095    2.412577   -2.363110
 H         10.012292    3.436816   -2.699868
 H         11.153666    2.073276   -2.785026
 H          9.407423    1.762924   -2.742488
 C          4.237641    1.454743    0.091492
 C          3.414422    0.295159   -0.121220
 C          3.516244    2.622895    0.433562
 C          1.967476    0.356791   -0.096407
 C          2.083187    2.693567    0.456383
 C          1.247832    1.585770    0.137627
 N          3.889356   -0.928723   -0.357200
 N          1.384460   -0.819996   -0.317290
 S          2.587985   -1.938985   -0.529040
 C          4.195689    3.813691    0.846372
 N          4.714360    4.794533    1.199094
 C          1.536871    3.940469    0.885581
 N          1.123261    4.968010    1.248028
 C         -0.186275    1.638568    0.062460
 C         -1.016776    2.766191    0.003034
 S         -1.169003    0.149585    0.003570
 C         -2.376003    2.454274   -0.053777
 H         -0.662718    3.785322   -0.010068
 C         -2.640187    1.076495   -0.033088
 O         -3.351814    3.386447   -0.045983
 C         -3.980533    0.649293   -0.001664
 C         -4.685862    3.021641   -0.546229
 C         -5.014833    1.582244   -0.171292
 S         -4.560677   -0.987216    0.282193
 C         -4.667539    3.182488   -2.075082
 C         -5.609049    4.043721    0.117569
 C         -6.267482    0.958347   -0.074160
 C         -6.219377   -0.434901    0.163801
 H         -5.652526    2.954292   -2.494733
 H         -4.403422    4.212431   -2.335265
 H         -3.936463    2.505090   -2.526937
 H         -6.624137    3.977170   -0.284412
 H         -5.643680    3.895043    1.200204
 H         -5.232165    5.049890   -0.087370
 S         -7.928842    1.507168   -0.195019
 C         -7.474216   -1.058379    0.265194
 C         -8.504856   -0.127157    0.094373
 C         -7.806764   -2.498008    0.642264
 C         -9.850963   -0.560095    0.118582
 O         -9.130403   -2.864518    0.115410
 C         -6.870287   -3.521976    0.001221
 C         -7.854022   -2.652058    2.170526
 C        -10.107939   -1.932147    0.126530
 S        -11.327175    0.358959    0.090811
 H         -6.812591   -3.377031   -1.080987
 H         -5.863929   -3.455032    0.424773
 H         -7.251629   -4.527546    0.201028
 H         -8.120210   -3.681322    2.431692
 H         -6.877576   -2.419153    2.607577
 H         -8.594822   -1.974387    2.605858
 C        -11.473070   -2.249528    0.063245
 C        -12.298163   -1.127314    0.012640
 H        -11.825955   -3.269872    0.068603
 C        -13.743579   -1.085089   -0.087466
 C        -14.482001    0.108561    0.261297
 C        -14.536062   -2.171638   -0.526792
 C        -15.930743    0.159954    0.211424
 N        -13.933107    1.257613    0.657851
 C        -15.979727   -2.102638   -0.556547
 C        -13.970948   -3.386050   -1.017146
 C        -16.679740   -0.971243   -0.193267
 N        -16.446174    1.340821    0.570687
 S        -15.168859    2.315757    0.939399
 C        -16.725791   -3.248351   -0.990829
 N        -13.562391   -4.393406   -1.437317
 H        -17.761619   -0.937145   -0.224345
 N        -17.357736   -4.161912   -1.335651
