       140
S0: Total Energy = -5122.03656782
 C         10.652959    0.322077    0.152489
 C         13.088098    0.781052    0.040568
 C         11.450767   -0.782550    0.005006
 C         14.490616    1.016229   -0.045386
 C         16.903547    1.407569   -0.177985
 C         16.584183    0.075889   -0.294457
 C         15.185131   -0.175479   -0.222399
 H         11.111891   -1.808189   -0.046463
 H         17.339183   -0.692048   -0.426403
 N         12.791481   -0.523000   -0.052733
 B         14.153035   -1.435389   -0.239253
 S         15.506065    2.427376    0.033415
 S         11.682029    1.768295    0.210170
 H         17.885648    1.862650   -0.201966
 C         14.020345   -2.219986   -1.655673
 C         13.332452   -3.446035   -1.741003
 C         14.526727   -1.695871   -2.859105
 C         13.151912   -4.110258   -2.956410
 H         12.942364   -3.900015   -0.832332
 C         14.357666   -2.352759   -4.080894
 H         15.068653   -0.752900   -2.842768
 C         13.665921   -3.564218   -4.134719
 H         12.615918   -5.056487   -2.982968
 H         14.767744   -1.919170   -4.990407
 H         13.532826   -4.079601   -5.082850
 C         14.361411   -2.388699    1.060704
 C         13.723939   -2.176841    2.296178
 C         15.282452   -3.452640    1.000806
 C         13.980426   -2.982538    3.409251
 H         13.008706   -1.363661    2.401275
 C         15.552077   -4.260540    2.107096
 H         15.793611   -3.659339    0.062964
 C         14.898251   -4.030029    3.319869
 H         13.462208   -2.790642    4.346296
 H         16.269187   -5.073987    2.020925
 H         15.100811   -4.659673    4.182784
 C          9.198138    0.395507    0.252328
 C          8.566750    1.500787    0.858938
 C          8.402280   -0.646437   -0.262885
 C          7.184660    1.511762    0.940130
 H          9.148541    2.318692    1.271497
 C          7.013987   -0.626529   -0.158807
 H          8.875051   -1.479729   -0.772107
 C          6.367208    0.453153    0.461008
 N          6.391436    2.522636    1.470177
 H          6.435226   -1.447442   -0.552489
 C          4.972060    0.843952    0.680899
 C          5.049824    2.213551    1.335977
 C          6.873024    3.748168    2.076385
 C          3.781016    0.193101    0.436783
 O          4.150257    2.938111    1.742558
 H          7.489174    3.529908    2.955484
 H          7.463424    4.329457    1.359603
 H          6.000789    4.326888    2.381218
 C          3.697870   -1.292379    0.115541
 C          2.390633    0.651649    0.452690
 O          4.593419   -2.123210    0.028205
 N          2.358036   -1.603570   -0.014571
 C          1.569481   -0.470721    0.160160
 C          1.750947    1.892627    0.596836
 C          1.869940   -2.938443   -0.299455
 C          0.193631   -0.395743    0.042257
 C          0.366929    1.985031    0.481607
 H          2.330595    2.773967    0.823153
 H          1.208591   -3.287073    0.501136
 H          1.324042   -2.957863   -1.249209
 H          2.736460   -3.596719   -0.366170
 C         -0.435300    0.857264    0.210981
 H         -0.385684   -1.278222   -0.208089
 H         -0.104002    2.949892    0.634662
 C         -1.885126    0.997459    0.103488
 C         -2.619239    2.146324   -0.158254
 S         -2.945971   -0.399034    0.318918
 C         -4.019254    1.951154   -0.194557
 H         -2.140179    3.100791   -0.347094
 C         -4.328248    0.614649    0.045446
 B         -5.377777    2.803869   -0.481301
 C         -5.733780    0.400383    0.000273
 N         -6.404222    1.528082   -0.282233
 C         -5.762317    3.914384    0.640093
 C         -5.433934    3.327643   -2.018396
 S         -6.782816   -0.948359    0.246951
 C         -7.759590    1.362013   -0.311939
 C         -6.783072    4.855541    0.403408
 C         -5.146450    3.955987    1.904319
 C         -5.967165    2.578469   -3.082213
 C         -4.856901    4.569568   -2.348236
 C         -8.193288    0.086293   -0.056124
 H         -8.387592    2.210673   -0.546336
 C         -7.174074    5.782146    1.372630
 H         -7.273242    4.874173   -0.567879
 C         -5.524500    4.881298    2.880876
 H         -4.349938    3.251256    2.132587
 C         -5.936627    3.040641   -4.401132
 H         -6.418659    1.608259   -2.885498
 C         -4.814582    5.039295   -3.662255
 H         -4.439253    5.187467   -1.556145
 C         -9.558411   -0.429305   -0.014659
 C         -6.543742    5.798605    2.618887
 H         -7.965846    6.495043    1.153133
 H         -5.021669    4.886802    3.845462
 C         -5.358279    4.275505   -4.697898
 H         -6.365468    2.434619   -5.196251
 H         -4.361563    6.004601   -3.877315
 C         -9.819987   -1.803663   -0.190133
 C        -10.638691    0.446744    0.207113
 H         -6.840549    6.521297    3.375111
 H         -5.332448    4.639341   -5.722112
 C        -11.134081   -2.237847   -0.153713
 H         -9.013798   -2.508093   -0.368085
 C        -11.955954   -0.005548    0.224991
 H        -10.446697    1.499162    0.388050
 C        -12.239271   -1.365267    0.030212
 N        -11.577348   -3.549663   -0.272686
 H        -12.760740    0.695004    0.384094
 C        -13.451079   -2.193476    0.057087
 C        -12.952096   -3.617661   -0.135013
 C        -10.737210   -4.709548   -0.495342
 C        -14.784992   -1.872402    0.175551
 O        -13.582318   -4.663950   -0.217972
 H        -10.193173   -4.618040   -1.441793
 H        -10.017340   -4.829542    0.321946
 H        -11.388953   -5.582569   -0.535733
 C        -15.312067   -0.451793    0.016412
 C        -15.980629   -2.693033    0.413278
 O        -14.703320    0.582564   -0.231329
 N        -16.684276   -0.514568    0.141187
 C        -17.099979   -1.819483    0.397626
 C        -16.211123   -4.043175    0.716654
 C        -17.552800    0.639927    0.025919
 C        -18.398446   -2.248932    0.633743
 C        -17.513291   -4.487305    0.963320
 H        -15.385697   -4.737214    0.743023
 H        -18.268031    0.505531   -0.792824
 H        -18.104130    0.805468    0.958245
 H        -16.922746    1.505105   -0.181613
 C        -18.595506   -3.605970    0.914338
 H        -19.232851   -1.555801    0.608799
 H        -17.680588   -5.535920    1.190594
 H        -19.602141   -3.970226    1.099998
       140
T1: Total Energy = -5121.99982678
 C        -10.503242    0.338711   -0.296247
 C        -12.931579    0.733491    0.056246
 C        -11.232679   -0.761405    0.101000
 C        -14.320067    0.934675    0.285760
 C        -16.714532    1.266957    0.669339
 C        -16.320633   -0.025384    0.924963
 C        -14.931541   -0.242226    0.711001
 H        -10.845745   -1.756958    0.266710
 H        -17.016929   -0.789012    1.255215
 N        -12.562659   -0.537225    0.287250
 B        -13.847355   -1.455867    0.770235
 S        -15.404340    2.289438    0.145345
 S        -11.605683    1.730082   -0.423198
 H        -17.707274    1.690394    0.755523
 C        -13.505550   -2.024940    2.252662
 C        -12.754632   -3.204957    2.418299
 C        -13.886707   -1.349613    3.426549
 C        -12.396737   -3.682856    3.681016
 H        -12.456359   -3.772371    1.539071
 C        -13.540055   -1.820007    4.695933
 H        -14.471028   -0.435404    3.349242
 C        -12.790114   -2.990091    4.828211
 H        -11.816969   -4.598965    3.769838
 H        -13.857271   -1.273632    5.581459
 H        -12.518909   -3.360692    5.813775
 C        -14.167142   -2.589789   -0.348918
 C        -13.693071   -2.539475   -1.671886
 C        -15.027032   -3.657964   -0.026987
 C        -14.046377   -3.502313   -2.621626
 H        -13.032314   -1.731015   -1.977882
 C        -15.392543   -4.622097   -0.968286
 H        -15.412338   -3.741803    0.986957
 C        -14.900174   -4.549882   -2.273564
 H        -13.653677   -3.432591   -3.633668
 H        -16.057920   -5.433375   -0.681209
 H        -15.177569   -5.301299   -3.008742
 C         -9.088350    0.444168   -0.584801
 C         -8.533554    1.644262   -1.080556
 C         -8.232662   -0.678614   -0.359579
 C         -7.176104    1.694126   -1.338513
 H         -9.155649    2.515408   -1.260522
 C         -6.881935   -0.629972   -0.621086
 H         -8.653721   -1.596460    0.035561
 C         -6.306055    0.561199   -1.133372
 N         -6.427746    2.749497   -1.801356
 H         -6.261620   -1.501884   -0.461325
 C         -4.995808    0.954270   -1.474211
 C         -5.077056    2.366084   -1.912108
 C         -6.918875    4.064597   -2.160360
 C         -3.772377    0.193326   -1.449928
 O         -4.192468    3.117625   -2.320253
 H         -7.652031    4.000998   -2.972072
 H         -7.380372    4.558066   -1.297779
 H         -6.061395    4.649972   -2.494737
 C         -3.702723   -1.260875   -1.724643
 C         -2.456336    0.620076   -1.195972
 O         -4.599300   -2.052171   -2.013794
 N         -2.349658   -1.630872   -1.613767
 C         -1.587020   -0.530540   -1.299381
 C         -1.866898    1.861831   -0.836390
 C         -1.867134   -2.978702   -1.836604
 C         -0.226397   -0.454679   -1.088301
 C         -0.511173    1.936353   -0.621293
 H         -2.483283    2.748115   -0.764350
 H         -1.161816   -3.008854   -2.674490
 H         -1.374651   -3.369996   -0.939458
 H         -2.733611   -3.598011   -2.072147
 C          0.346427    0.794228   -0.742617
 H          0.388971   -1.344886   -1.168182
 H         -0.077078    2.895848   -0.365925
 C          1.763559    0.933525   -0.508642
 C          2.464679    2.049683   -0.039145
 S          2.874509   -0.415468   -0.815587
 C          3.853020    1.864529    0.082067
 H          1.963685    2.974354    0.222945
 C          4.208192    0.569334   -0.306278
 B          5.169295    2.685751    0.581780
 C          5.606704    0.365334   -0.181348
 N          6.232243    1.455644    0.295945
 C          5.614972    3.939224   -0.348997
 C          5.103260    2.995909    2.175681
 S          6.699538   -0.931067   -0.513551
 C          7.580901    1.299352    0.413583
 C          6.623951    4.826572    0.074051
 C          5.067924    4.167901   -1.624661
 C          5.523920    2.087532    3.163552
 C          4.529008    4.199493    2.628411
 C          8.059842    0.069613    0.032268
 H          8.172073    2.116268    0.804116
 C          7.069236    5.878012   -0.730049
 H          7.060226    4.702305    1.063189
 C          5.500093    5.220083   -2.436669
 H          4.283142    3.511576   -1.993957
 C          5.390102    2.362946    4.527210
 H          5.967605    1.138410    2.869634
 C          4.383754    4.483449    3.987827
 H          4.196665    4.935743    1.899866
 C          9.433593   -0.420290    0.039508
 C          6.506425    6.079494   -1.992483
 H          7.849869    6.543948   -0.368977
 H          5.049465    5.369085   -3.415406
 C          4.817393    3.564704    4.946410
 H          5.733670    1.637671    5.261548
 H          3.936729    5.425088    4.298855
 C          9.711649   -1.802966    0.026437
 C         10.508719    0.490350    0.056123
 H          6.845366    6.899896   -2.620375
 H          4.711466    3.783697    6.006058
 C         11.033565   -2.213223    0.047872
 H          8.910174   -2.534641    0.017930
 C         11.832249    0.059432    0.092305
 H         10.309816    1.556292    0.021975
 C         12.129343   -1.311217    0.104182
 N         11.496783   -3.522728    0.006697
 H         12.631062    0.783997    0.118043
 C         13.358191   -2.112064    0.066408
 C         12.880029   -3.553937   -0.009537
 C         10.669094   -4.712138   -0.027868
 C         14.688705   -1.761570    0.128032
 O         13.526372   -4.593388   -0.027374
 H         10.034951   -4.768324    0.863652
 H         10.033797   -4.717480   -0.920577
 H         11.335969   -5.574242   -0.052512
 C         15.162122   -0.379309    0.560128
 C         15.921212   -2.521370   -0.119609
 O         14.506415    0.596121    0.907110
 N         16.541121   -0.408312    0.562553
 C         17.011869   -1.650869    0.143209
 C         16.212368   -3.802605   -0.611378
 C         17.365641    0.720759    0.944634
 C         18.337011   -2.024162   -0.032141
 C         17.542516   -4.188639   -0.798867
 H         15.410489   -4.490986   -0.828151
 H         18.006859    0.460951    1.793898
 H         17.994777    1.043044    0.107449
 H         16.697438    1.533509    1.230306
 C         18.593047   -3.316343   -0.505353
 H         19.147848   -1.336103    0.183276
 H         17.756655   -5.185087   -1.173618
 H         19.621403   -3.636296   -0.648755
       140
S1: Total Energy = -5121.97393813
 C        -10.585527    0.330883   -0.109881
 C        -13.027285    0.731778    0.133753
 C        -11.353773   -0.792587    0.121209
 C        -14.425197    0.929958    0.289206
 C        -16.838261    1.260567    0.539080
 C        -16.475501   -0.058843    0.680955
 C        -15.077997   -0.276013    0.541969
 H        -10.989114   -1.807515    0.195499
 H        -17.201098   -0.841103    0.877692
 N        -12.687671   -0.564203    0.249526
 B        -14.012557   -1.507298    0.541265
 S        -15.483770    2.310478    0.219756
 S        -11.660139    1.748822   -0.149576
 H        -17.830507    1.689334    0.601282
 C        -13.780019   -2.240805    1.971315
 C        -13.048914   -3.441589    2.057675
 C        -14.240138   -1.693709    3.183009
 C        -12.784228   -4.059992    3.281770
 H        -12.691613   -3.912663    1.144194
 C        -13.987181   -2.305248    4.413804
 H        -14.812225   -0.768711    3.166316
 C        -13.254474   -3.492305    4.468125
 H        -12.216695   -4.987581    3.309246
 H        -14.363454   -1.855265    5.329914
 H        -13.055640   -3.972295    5.423285
 C        -14.266190   -2.504957   -0.716320
 C        -13.719915   -2.302946   -1.996475
 C        -15.138567   -3.600815   -0.568387
 C        -14.016175   -3.148546   -3.069143
 H        -13.045864   -1.466551   -2.169779
 C        -15.447482   -4.448829   -1.633693
 H        -15.578813   -3.800289    0.406184
 C        -14.883794   -4.227405   -2.892434
 H        -13.568207   -2.963338   -4.042963
 H        -16.124493   -5.286249   -1.479672
 H        -15.116904   -4.888118   -3.723814
 C         -9.155556    0.438216   -0.304079
 C         -8.559027    1.662088   -0.685861
 C         -8.322212   -0.695186   -0.104219
 C         -7.190322    1.708048   -0.865793
 H         -9.159857    2.552704   -0.841944
 C         -6.951786   -0.640445   -0.292174
 H         -8.763511   -1.633190    0.215141
 C         -6.340661    0.564981   -0.698853
 N         -6.418242    2.800983   -1.207055
 H         -6.349696   -1.526507   -0.150529
 C         -4.986487    0.986817   -0.927659
 C         -5.066552    2.444614   -1.259380
 C         -6.904598    4.133936   -1.496936
 C         -3.783629    0.257450   -0.912939
 O         -4.180578    3.235910   -1.573999
 H         -7.584509    4.123988   -2.356310
 H         -7.428829    4.554699   -0.631420
 H         -6.037158    4.752190   -1.730667
 C         -3.711869   -1.222992   -1.098297
 C         -2.422495    0.699876   -0.769790
 O         -4.604825   -2.042226   -1.302169
 N         -2.357122   -1.574538   -1.055076
 C         -1.573496   -0.456717   -0.849895
 C         -1.803124    1.939159   -0.502583
 C         -1.879528   -2.929962   -1.232130
 C         -0.203625   -0.395663   -0.719165
 C         -0.428676    2.011113   -0.366298
 H         -2.402540    2.835505   -0.434848
 H         -1.231341   -3.004534   -2.112739
 H         -1.322753   -3.265011   -0.349589
 H         -2.753998   -3.566281   -1.372407
 C          0.409002    0.861558   -0.477400
 H          0.391540   -1.299707   -0.796334
 H          0.018969    2.977658   -0.166492
 C          1.832837    0.991747   -0.333789
 C          2.591543    2.157659   -0.122425
 S          2.891849   -0.433926   -0.416363
 C          3.969627    1.953273   -0.032077
 H          2.128215    3.133938   -0.042627
 C          4.277637    0.583903   -0.173722
 B          5.329791    2.813565    0.222773
 C          5.661071    0.361914   -0.081626
 N          6.346325    1.512726    0.137557
 C          5.749734    3.835777   -0.965812
 C          5.359201    3.437763    1.722145
 S          6.708315   -1.013884   -0.199028
 C          7.681960    1.340375    0.207015
 C          6.785989    4.771467   -0.779178
 C          5.151732    3.801238   -2.238700
 C          5.817377    2.734204    2.850393
 C          4.831381    4.723385    1.950700
 C          8.122218    0.034226    0.053983
 H          8.311596    2.204908    0.366379
 C          7.208410    5.621055   -1.804024
 H          7.262720    4.849068    0.195879
 C          5.560680    4.650154   -3.270583
 H          4.344104    3.098222   -2.430028
 C          5.763488    3.281181    4.135381
 H          6.226626    1.732907    2.732527
 C          4.765908    5.277917    3.230362
 H          4.472018    5.307375    1.106319
 C          9.472300   -0.475661    0.078530
 C          6.594711    5.563443   -3.057399
 H          8.011034    6.332388   -1.622548
 H          5.070533    4.599052   -4.240234
 C          5.235702    4.558183    4.331502
 H          6.133595    2.708336    4.982750
 H          4.352844    6.274798    3.367206
 C          9.739033   -1.849407   -0.131502
 C         10.565793    0.398764    0.306931
 H          6.915783    6.226427   -3.857067
 H          5.191517    4.987975    5.329126
 C         11.048187   -2.286350   -0.094807
 H          8.935964   -2.551925   -0.329189
 C         11.874440   -0.057754    0.347769
 H         10.386064    1.456695    0.462385
 C         12.155466   -1.424012    0.163365
 N         11.502385   -3.577203   -0.314954
 H         12.678914    0.634541    0.543382
 C         13.366787   -2.224505    0.070127
 C         12.888333   -3.625987   -0.253139
 C         10.672726   -4.734904   -0.584109
 C         14.701066   -1.902359    0.256925
 O         13.527374   -4.660738   -0.391326
 H          9.979018   -4.914840    0.244256
 H         10.100384   -4.596735   -1.508271
 H         11.335950   -5.593245   -0.693825
 C         15.154625   -0.638369    0.964671
 C         15.931899   -2.611475   -0.081650
 O         14.484689    0.254441    1.473217
 N         16.535797   -0.675112    1.011068
 C         17.018540   -1.817945    0.381842
 C         16.234480   -3.781615   -0.798685
 C         17.345077    0.353076    1.634213
 C         18.346879   -2.168925    0.185205
 C         17.567006   -4.140433   -1.007670
 H         15.436804   -4.407245   -1.169028
 H         17.950770   -0.068510    2.443782
 H         18.008339    0.823797    0.899926
 H         16.666123    1.102270    2.042339
 C         18.611699   -3.351110   -0.515622
 H         19.153741   -1.545159    0.555617
 H         17.791496   -5.049925   -1.556887
 H         19.642614   -3.651434   -0.681246
