       125
S0: Total Energy = -5111.45390170
 C         12.036212   -1.260140    0.141199
 C         13.027628   -2.262581    0.038996
 C         12.443219    0.085070    0.244151
 C         14.356344   -1.878993    0.054383
 H         12.754695   -3.303862   -0.064718
 C         13.786489    0.450816    0.259520
 H         11.696994    0.868803    0.334245
 C         14.784631   -0.530756    0.179740
 N         15.459891   -2.716997   -0.074964
 H         14.058885    1.490231    0.356690
 C         16.248471   -0.524935    0.094369
 C         16.633093   -1.987045   -0.080279
 C         15.414128   -4.161347   -0.189291
 C         17.172937    0.492195    0.180194
 O         17.743383   -2.498606   -0.157734
 H         14.935606   -4.603519    0.691212
 H         14.861074   -4.462722   -1.085764
 H         16.442223   -4.517049   -0.260630
 C         16.832685    1.877848    0.710133
 C         18.608647    0.547780   -0.127283
 O         15.766661    2.310958    1.133361
 N         18.001851    2.610507    0.703090
 C         19.056503    1.856757    0.191895
 C         19.529747   -0.332767   -0.713376
 C         18.091811    3.981402    1.164616
 C         20.360913    2.282206   -0.018397
 C         20.844773    0.085324   -0.936833
 H         19.225136   -1.334366   -0.974443
 H         18.808266    4.065290    1.988960
 H         18.404210    4.645625    0.351114
 H         17.101900    4.276265    1.513555
 C         21.259915    1.372110   -0.586586
 H         20.672871    3.288303    0.241982
 H         21.551503   -0.606886   -1.384822
 H         22.288248    1.677411   -0.759222
 C         10.620855   -1.615268    0.128739
 C         10.017762   -2.843945    0.265725
 S          9.362913   -0.406975   -0.100246
 C          8.604997   -2.822432    0.204443
 C          8.053898   -1.575969    0.018962
 F         10.665389   -4.004437    0.464684
 F          7.906961   -3.961920    0.345696
 C          6.654562   -1.176499   -0.084899
 C          5.646119   -2.144798   -0.294232
 C          6.280196    0.178242    0.021082
 C          4.335207   -1.717732   -0.401376
 H          5.893317   -3.194826   -0.371540
 C          4.955831    0.589379   -0.098105
 H          7.037364    0.932635    0.212657
 C          3.943155   -0.353954   -0.327550
 N          3.214560   -2.524121   -0.575129
 H          4.710231    1.637296   -0.023737
 C          2.483119   -0.310998   -0.431074
 C          2.060829   -1.764325   -0.583832
 C          3.225912   -3.966383   -0.721508
 C          1.587476    0.737868   -0.442021
 O          0.942811   -2.239494   -0.743213
 H          3.811582   -4.260978   -1.598990
 H          3.650397   -4.443623    0.168606
 H          2.193013   -4.290907   -0.849559
 C          0.128403    0.783384   -0.326595
 C          2.007644    2.186280   -0.640005
 C         -0.265197    2.144198   -0.437125
 C         -0.881463   -0.152964   -0.059348
 N          0.853457    2.945574   -0.643911
 O          3.124071    2.657196   -0.821697
 C         -1.575390    2.573817   -0.330817
 C         -2.204771    0.261142    0.060304
 H         -0.634719   -1.198142    0.043942
 C          0.839992    4.383235   -0.829977
 C         -2.581259    1.611938   -0.082714
 H         -1.823752    3.621013   -0.436905
 H         -2.959305   -0.487788    0.281383
 H          0.249480    4.653247   -1.712115
 H          0.419644    4.884332    0.048934
 H          1.871873    4.705039   -0.972287
 C         -3.979842    2.013227    0.023943
 C         -4.531770    3.265341    0.164854
 S         -5.287341    0.837467   -0.025930
 C         -5.943429    3.286345    0.246626
 F         -3.835294    4.411551    0.247130
 C         -6.545019    2.051526    0.171481
 F         -6.591469    4.452565    0.406372
 C         -7.958441    1.693651    0.223639
 C         -8.955341    2.687439    0.092835
 C         -8.358784    0.353298    0.395376
 C        -10.281997    2.300994    0.148471
 H         -8.688148    3.723815   -0.062544
 C         -9.699833   -0.015570    0.450433
 H         -7.608221   -0.423153    0.509147
 C        -10.703735    0.958115    0.341891
 N        -11.390462    3.129279    0.002008
 H         -9.966241   -1.050272    0.599440
 C        -12.167842    0.945519    0.287510
 C        -12.560435    2.396376    0.052950
 C        -11.351661    4.566570   -0.182875
 C        -13.090137   -0.068601    0.438786
 O        -13.674053    2.900391   -0.031326
 H        -10.857556    5.051765    0.665758
 H        -10.817016    4.825290   -1.103482
 H        -12.381930    4.916458   -0.251268
 C        -14.531009   -0.132994    0.181156
 C        -12.735028   -1.436400    1.003436
 C        -14.972572   -1.430296    0.554646
 C        -15.482081    0.722264   -0.394637
 N        -13.904614   -2.169184    1.054976
 O        -11.657491   -1.859387    1.405141
 C        -16.277640   -1.866397    0.411957
 C        -16.798191    0.297375   -0.555653
 H        -15.196767    1.715295   -0.704879
 C        -13.979582   -3.526228    1.559454
 C        -17.225026   -0.982445   -0.150606
 H        -16.566123   -2.860048    0.726932
 H        -17.505550    0.979522   -1.017793
 H        -14.665482   -3.584412    2.411458
 H        -14.322228   -4.212523    0.777275
 H        -12.977906   -3.812690    1.880505
 C        -18.619753   -1.392883   -0.306277
 C        -19.179424   -2.647078   -0.248042
 S        -19.902470   -0.226222   -0.615753
 C        -20.586210   -2.678918   -0.453812
 F        -18.498836   -3.786685   -0.033970
 C        -21.130744   -1.451128   -0.669387
 F        -21.264460   -3.834272   -0.431219
 H        -22.166639   -1.200865   -0.845491
       125
T1: Total Energy = -5111.41696152
 C         11.735197   -1.305849   -0.037798
 C         12.788751   -2.220838   -0.271437
 C         12.031511   -0.083996    0.601927
 C         14.061723   -1.880194    0.146330
 H         12.607495   -3.158003   -0.779357
 C         13.319104    0.237745    1.019484
 H         11.236476    0.629281    0.797528
 C         14.372770   -0.665384    0.814596
 N         15.219250   -2.630362   -0.035008
 H         13.502090    1.174997    1.521521
 C         15.820287   -0.646183    1.040991
 C         16.322866   -1.956822    0.453546
 C         15.287785   -3.939899   -0.653031
 C         16.643453    0.265679    1.665292
 O         17.456795   -2.419349    0.431645
 H         14.680149   -4.661990   -0.097038
 H         14.934880   -3.898683   -1.689444
 H         16.331108   -4.255724   -0.637416
 C         16.117549    1.378708    2.560634
 C         18.104439    0.410091    1.702675
 O         14.963442    1.646471    2.875949
 N         17.215835    2.053990    3.051943
 C         18.396413    1.517144    2.542766
 C         19.177846   -0.218354    1.053886
 C         17.124910    3.173416    3.968027
 C         19.687120    1.973824    2.770867
 C         20.481855    0.235929    1.269837
 H         18.994882   -1.059843    0.403865
 H         17.656017    2.953657    4.900523
 H         17.550342    4.078035    3.519398
 H         16.068579    3.337289    4.182424
 C         20.736832    1.311761    2.123498
 H         19.876954    2.819801    3.423250
 H         21.305991   -0.262171    0.767867
 H         21.757646    1.646170    2.286558
 C         10.377295   -1.616372   -0.460327
 C          9.840698   -2.804316   -0.912335
 S          9.104785   -0.401706   -0.462515
 C          8.471396   -2.752538   -1.237403
 C          7.873474   -1.518180   -1.054863
 F         10.518806   -3.956735   -1.037411
 F          7.843697   -3.855548   -1.675567
 C          6.508755   -1.100658   -1.284585
 C          5.559964   -1.994175   -1.841081
 C          6.096768    0.227199   -0.948188
 C          4.271179   -1.543521   -2.045606
 H          5.838757   -3.006298   -2.099528
 C          4.812428    0.674116   -1.156736
 H          6.816930    0.910653   -0.508696
 C          3.850864   -0.198909   -1.729445
 N          3.193467   -2.233870   -2.551149
 H          4.538241    1.691463   -0.911264
 C          2.483404   -0.084776   -2.047123
 C          2.062053   -1.399719   -2.583869
 C          3.192890   -3.606046   -3.017117
 C          1.602976    1.049359   -1.922491
 O          0.964600   -1.761977   -3.008003
 H          3.889971   -3.736443   -3.852204
 H          3.470477   -4.291921   -2.209158
 H          2.180672   -3.834387   -3.353261
 C          0.221080    1.088588   -1.653350
 C          2.042782    2.454787   -2.085668
 C         -0.190448    2.472514   -1.635441
 C         -0.763024    0.105329   -1.370796
 N          0.906834    3.261113   -1.895517
 O          3.157327    2.905345   -2.350619
 C         -1.489639    2.865583   -1.384261
 C         -2.058115    0.493703   -1.116716
 H         -0.495989   -0.943013   -1.381888
 C          0.922995    4.706646   -1.995672
 C         -2.459767    1.866683   -1.120335
 H         -1.760586    3.912248   -1.388238
 H         -2.795437   -0.274104   -0.902761
 H          0.265078    5.050688   -2.801275
 H          0.604950    5.166138   -1.053293
 H          1.948852    5.005257   -2.215226
 C         -3.835122    2.222326   -0.854634
 C         -4.428666    3.467256   -0.741251
 S         -5.088118    1.001588   -0.624060
 C         -5.811321    3.445325   -0.476400
 F         -3.785860    4.640614   -0.853359
 C         -6.364632    2.185520   -0.369435
 F         -6.486411    4.597492   -0.334033
 C         -7.739118    1.788004   -0.104793
 C         -8.779853    2.746973   -0.106902
 C         -8.065499    0.438672    0.148503
 C        -10.069522    2.320236    0.147669
 H         -8.575227    3.787445   -0.317669
 C         -9.369456    0.029863    0.407456
 H         -7.281884   -0.312964    0.160433
 C        -10.411948    0.969215    0.427680
 N        -11.216079    3.108152    0.147122
 H         -9.575629   -1.008944    0.613294
 C        -11.865426    0.908391    0.585387
 C        -12.339679    2.338704    0.382340
 C        -11.256482    4.540423   -0.073450
 C        -12.719577   -0.132156    0.888133
 O        -13.471135    2.803414    0.452599
 H        -10.664339    5.064967    0.684114
 H        -10.868770    4.791133   -1.067024
 H        -12.298057    4.854140   -0.000855
 C        -14.177351   -0.251903    0.833318
 C        -12.239322   -1.468231    1.434556
 C        -14.515816   -1.550338    1.299763
 C        -15.228349    0.552064    0.367164
 N        -13.362847   -2.237120    1.668096
 O        -11.101399   -1.841276    1.694340
 C        -15.811170   -2.033153    1.349187
 C        -16.537151    0.079295    0.399398
 H        -15.024453    1.543004   -0.007692
 C        -13.317360   -3.578947    2.214974
 C        -16.858039   -1.199652    0.896125
 H        -16.017165   -3.024927    1.728175
 H        -17.325055    0.722373    0.018788
 H        -13.870023   -3.630733    3.159262
 H        -13.746011   -4.299541    1.509918
 H        -12.270402   -3.824665    2.393933
 C        -18.244992   -1.659408    0.944219
 C        -18.746903   -2.925535    1.132002
 S        -19.598800   -0.548452    0.754822
 C        -20.166347   -3.009528    1.115771
 F        -18.004120   -4.032679    1.305650
 C        -20.778353   -1.810589    0.919543
 F        -20.793529   -4.182131    1.279624
 H        -21.836673   -1.600155    0.870649
       125
S1: Total Energy = -5111.39365280
 C         11.867434   -1.303696   -0.026469
 C         12.880535   -2.296187   -0.058555
 C         12.234588    0.022249    0.311050
 C         14.173725   -1.928155    0.252384
 H         12.648268   -3.317028   -0.327188
 C         13.539832    0.370835    0.626597
 H         11.478908    0.801764    0.330506
 C         14.552332   -0.604711    0.621256
 N         15.295327   -2.748135    0.238400
 H         13.775084    1.389164    0.895458
 C         15.995884   -0.597431    0.817121
 C         16.435085   -2.025552    0.548623
 C         15.301975   -4.167237   -0.056905
 C         16.869377    0.404569    1.201130
 O         17.549048   -2.529128    0.627284
 H         14.678658   -4.714402    0.658585
 H         14.931238   -4.354566   -1.070720
 H         16.332903   -4.513090    0.022024
 C         16.410156    1.698561    1.847844
 C         18.328469    0.499549    1.155121
 O         15.276661    2.067354    2.138639
 N         17.546233    2.428903    2.141316
 C         18.688328    1.753245    1.722001
 C         19.355192   -0.294873    0.619095
 C         17.521088    3.723028    2.793006
 C         20.000714    2.199219    1.797102
 C         20.678430    0.146656    0.682985
 H         19.120137   -1.250612    0.176173
 H         18.078163    3.692892    3.735753
 H         17.956120    4.492796    2.145871
 H         16.478118    3.967287    2.996315
 C         21.001094    1.373111    1.271894
 H         20.243691    3.158999    2.241201
 H         21.466138   -0.477872    0.272123
 H         22.037341    1.696107    1.320086
 C         10.494319   -1.632750   -0.338111
 C          9.927634   -2.844982   -0.701684
 S          9.213989   -0.421896   -0.303615
 C          8.546543   -2.808374   -0.941361
 C          7.953769   -1.563491   -0.777362
 F         10.601599   -3.998350   -0.831466
 F          7.895858   -3.926140   -1.299947
 C          6.579856   -1.160932   -0.937545
 C          5.585211   -2.094352   -1.332695
 C          6.189087    0.186397   -0.694109
 C          4.287419   -1.652590   -1.476524
 H          5.838226   -3.130046   -1.511484
 C          4.884698    0.616953   -0.845560
 H          6.934673    0.910031   -0.378408
 C          3.886420   -0.291242   -1.262243
 N          3.176362   -2.401251   -1.819617
 H          4.630484    1.652547   -0.671791
 C          2.467923   -0.213178   -1.461434
 C          2.032832   -1.601132   -1.826753
 C          3.168850   -3.811966   -2.149546
 C          1.588840    0.882677   -1.395946
 O          0.920797   -2.023739   -2.133527
 H          3.795595   -4.011133   -3.025863
 H          3.533064   -4.410230   -1.306922
 H          2.137923   -4.089157   -2.372121
 C          0.165614    0.934164   -1.227823
 C          2.030699    2.307440   -1.548928
 C         -0.233674    2.313197   -1.261932
 C         -0.841204   -0.022564   -0.968479
 N          0.885118    3.100304   -1.464510
 O          3.150039    2.767905   -1.758412
 C         -1.535379    2.732043   -1.096274
 C         -2.150076    0.383479   -0.796761
 H         -0.588734   -1.072437   -0.932776
 C          0.899404    4.543146   -1.594861
 C         -2.539426    1.753139   -0.863332
 H         -1.786017    3.782790   -1.136301
 H         -2.901996   -0.376329   -0.605690
 H          0.296482    4.863322   -2.451822
 H          0.511555    5.019478   -0.687496
 H          1.935754    4.845797   -1.748572
 C         -3.915682    2.127933   -0.689877
 C         -4.510350    3.386255   -0.702480
 S         -5.184730    0.932229   -0.410090
 C         -5.894293    3.390854   -0.500281
 F         -3.852124    4.540410   -0.888972
 C         -6.469103    2.138013   -0.317077
 F         -6.570035    4.549823   -0.491940
 C         -7.843786    1.773738   -0.089925
 C         -8.864826    2.760234   -0.040449
 C         -8.212494    0.412679    0.082029
 C        -10.162657    2.354112    0.184258
 H         -8.631994    3.805836   -0.184342
 C         -9.521122    0.024322    0.313262
 H         -7.450115   -0.359228    0.037435
 C        -10.543063    0.991562    0.387844
 N        -11.291236    3.159839    0.229438
 H         -9.757062   -1.019106    0.457461
 C        -11.982668    0.953743    0.540035
 C        -12.431568    2.393459    0.422828
 C        -11.308283    4.602735    0.093893
 C        -12.858736   -0.099229    0.786659
 O        -13.554931    2.874628    0.521100
 H        -10.710824    5.073280    0.882304
 H        -10.914111    4.905947   -0.882440
 H        -12.345312    4.927407    0.182993
 C        -14.302158   -0.199623    0.672604
 C        -12.408996   -1.442905    1.316258
 C        -14.677402   -1.510185    1.089849
 C        -15.325874    0.633941    0.186685
 N        -13.548208   -2.215352    1.483133
 O        -11.283850   -1.830347    1.615565
 C        -15.979556   -1.974327    1.072476
 C        -16.637605    0.179500    0.155090
 H        -15.093345    1.633457   -0.148263
 C        -13.531254   -3.569733    1.998749
 C        -16.996782   -1.112365    0.601783
 H        -16.214048   -2.973464    1.413459
 H        -17.402098    0.844516   -0.235601
 H        -14.124348   -3.642446    2.916870
 H        -13.930640   -4.272447    1.259095
 H        -12.493659   -3.823749    2.217216
 C        -18.387681   -1.550111    0.577516
 C        -18.922555   -2.805940    0.760037
 S        -19.712313   -0.422665    0.287801
 C        -20.338612   -2.867882    0.663626
 F        -18.210987   -3.921318    0.997713
 C        -20.918942   -1.663308    0.409329
 F        -20.994164   -4.026444    0.813471
 H        -21.969236   -1.438508    0.294864
