       176
S0: Total Energy = -8997.00046414
 C          7.109559    5.508420   -0.250636
 C          8.006696    6.609205   -0.239941
 C          9.337653    6.183120   -0.227621
 C          9.503521    4.784863   -0.227921
 C         10.868566    4.432522   -0.201151
 C         11.721285    5.543641   -0.187122
 C         13.043340    5.065296   -0.208562
 C         14.308177    5.726300   -0.328821
 C         15.510623    4.932823   -0.467098
 S          7.984434    3.949294   -0.235515
 S         10.873495    7.071229   -0.196936
 C         18.281249   -1.685906    0.159864
 C         18.905668   -0.437090   -0.096348
 C         17.968192    0.597473   -0.167859
 C         16.633948    0.190788    0.021215
 C         15.747890    1.283677   -0.081527
 C         16.400681    2.496307   -0.336766
 C         15.423166    3.506538   -0.370881
 C         14.165524    2.863694   -0.168373
 C         12.961461    3.640769   -0.197603
 S         16.507210   -1.516290    0.298424
 S         18.135605    2.337817   -0.469445
 C          5.711467    5.709211   -0.274492
 C          4.606899    4.872813   -0.285860
 C          4.633273    3.395541   -0.256307
 O          5.617544    2.661511   -0.229607
 C          3.224086    2.940623   -0.261531
 C          2.750066    1.641906   -0.236790
 C          1.359043    1.412951   -0.245375
 C          0.506351    2.540831   -0.282292
 C          0.989676    3.846212   -0.307736
 C          2.375517    4.061017   -0.296581
 C          3.203710    5.290843   -0.317300
 C          2.687070    6.579271   -0.364469
 C          1.288703    6.867346   -0.388243
 N          0.160406    7.159246   -0.408405
 C          3.474140    7.768989   -0.398368
 N          4.067390    8.772676   -0.428340
 H          5.480720    6.767290   -0.284389
 H          3.451264    0.812342   -0.209974
 H          0.281466    4.662851   -0.335395
 C         19.042978   -2.871574    0.267504
 C         18.744164   -4.203047    0.504059
 C         17.397356   -4.762684    0.748879
 O         16.328243   -4.158022    0.768682
 C         17.567421   -6.214228    0.974061
 C         16.586536   -7.157072    1.248170
 C         16.982961   -8.484467    1.428202
 C         18.335661   -8.831427    1.330402
 C         19.320543   -7.876837    1.052789
 C         18.931084   -6.545156    0.871179
 C         19.701294   -5.308551    0.568414
 C         21.075387   -5.271049    0.380578
 C         21.917593   -6.421574    0.465919
 N         22.653588   -7.323416    0.523413
 C         21.820681   -4.092587    0.074723
 N         22.477862   -3.162620   -0.176614
 H         20.095704   -2.658740    0.128467
 H         15.545810   -6.855671    1.317558
 H         20.353366   -8.189833    0.986642
 N         14.386684    1.505786    0.035969
 N         11.620866    3.270585   -0.222646
 N         14.516439    7.036087   -0.382395
 N         16.615953    5.650676   -0.624421
 C         11.043393    1.985220   -0.617343
 H         10.169892    2.175763   -1.244460
 H         11.764945    1.424896   -1.211559
 H         10.733072    1.392213    0.246957
 C         13.493990    0.525042    0.653694
 H         13.008577   -0.112436   -0.089946
 H         14.081804   -0.103931    1.325516
 H         12.740690    1.037809    1.251585
 C         20.387020   -0.234362   -0.265812
 H         20.936676   -0.501128    0.643655
 H         20.791952   -0.847060   -1.077984
 H         20.610217    0.811129   -0.494249
 C          7.592689    8.055882   -0.240298
 H          6.971768    8.301321   -1.108315
 H          7.011704    8.309270    0.653258
 H          8.469205    8.708667   -0.263260
 S         16.149838    7.244181   -0.597242
 C          0.875759    0.034456   -0.216133
 C         -0.414475   -0.369141   -0.199989
 H          1.664984   -0.714385   -0.205782
 H         -1.203231    0.380175   -0.208991
 H         18.633977   -9.865929    1.472564
 H         16.243852   -9.250082    1.644577
 H         -0.569211    2.398542   -0.293154
 C         -0.899347   -1.746990   -0.170273
 C         -2.290806   -1.973280   -0.169048
 C         -0.048581   -2.876531   -0.142093
 C         -2.767113   -3.271036   -0.142421
 H         -2.990639   -1.142391   -0.189370
 C         -0.534317   -4.181069   -0.114581
 H          1.027297   -2.736205   -0.140451
 C         -4.177212   -3.722824   -0.137293
 C         -1.920656   -4.393164   -0.114966
 H          0.172486   -4.999141   -0.093902
 C         -4.154021   -5.200097   -0.109882
 O         -5.159799   -2.986205   -0.153879
 C         -2.751570   -5.621212   -0.088624
 C         -5.260885   -6.033807   -0.112611
 C         -2.237363   -6.910763   -0.045470
 C         -6.658464   -5.829112   -0.127595
 H         -5.032876   -7.092473   -0.101026
 C         -0.839477   -7.201744   -0.031171
 C         -3.026784   -8.098739   -0.006148
 C         -7.559315   -6.927077   -0.127519
 S         -7.528639   -4.267250   -0.141920
 N          0.288352   -7.495877   -0.018456
 N         -3.622083   -9.101079    0.028004
 C         -8.888862   -6.496867   -0.145389
 C         -7.150124   -8.375065   -0.117062
 C         -9.050131   -5.098088   -0.155252
 S        -10.428203   -7.379662   -0.142648
 H         -6.587835   -8.641230   -1.018996
 H         -6.513053   -8.612372    0.741277
 H         -8.028265   -9.024327   -0.069250
 C        -10.414100   -4.741114   -0.155953
 C        -11.270898   -5.849131   -0.154374
 N        -11.161642   -3.576648   -0.195356
 C        -12.590531   -5.366065   -0.203103
 C        -12.503781   -3.941670   -0.195278
 C        -10.570718   -2.293600   -0.576635
 C        -13.855132   -6.022903   -0.346172
 C        -13.705406   -3.160159   -0.193179
 H        -10.274257   -1.703538    0.294549
 H         -9.686146   -2.487192   -1.187114
 H        -11.277891   -1.728917   -1.183638
 C        -15.051662   -5.225572   -0.511383
 N        -14.067098   -7.332133   -0.399172
 C        -14.960987   -3.799246   -0.418837
 N        -13.925886   -1.800423    0.000633
 N        -16.156249   -5.940053   -0.688241
 S        -15.696652   -7.535112   -0.645927
 C        -15.935409   -2.785270   -0.409251
 C        -15.283454   -1.574127   -0.146022
 C        -13.043879   -0.820060    0.634188
 S        -17.666797   -2.620389   -0.577462
 C        -16.167196   -0.477344   -0.065697
 H        -13.643607   -0.189088    1.293540
 H        -12.303112   -1.332830    1.247461
 H        -12.543105   -0.184492   -0.100925
 C        -17.498726   -0.879466   -0.279442
 S        -16.039038    1.230477    0.205874
 C        -18.433485    0.159404   -0.230115
 C        -17.809297    1.406331    0.032911
 C        -19.912114   -0.038100   -0.427754
 C        -18.568476    2.595884    0.123670
 H        -20.480251    0.248568    0.464008
 H        -20.295065    0.561835   -1.259988
 H        -20.136610   -1.086338   -0.641954
 C        -18.268478    3.926100    0.361741
 H        -19.619439    2.386859   -0.033573
 C        -16.923582    4.482591    0.623125
 C        -19.223548    5.036374    0.409679
 O        -15.856094    3.876326    0.661545
 C        -17.094190    5.936644    0.837795
 C        -18.454706    6.267603    0.713356
 C        -20.596980    5.001150    0.209809
 C        -16.117161    6.875918    1.119174
 C        -18.831936    7.607424    0.882033
 C        -21.433931    6.156090    0.281477
 C        -21.343509    3.823337   -0.093517
 C        -16.484765    8.222951    1.292850
 H        -15.079164    6.566062    1.204064
 C        -17.851538    8.555444    1.166270
 H        -19.860608    7.930267    0.798528
 N        -22.163478    7.063888    0.328183
 N        -22.001896    2.893672   -0.343341
 C        -15.440431    9.212039    1.594419
 H        -18.161851    9.587831    1.291548
 C        -15.606730   10.522692    1.818600
 H        -14.431065    8.804713    1.636280
 H        -14.754938   11.160264    2.033761
 H        -16.577670   11.009787    1.800064
       176
T1: Total Energy = -8996.95519932
 C          7.104510    5.505031   -0.256513
 C          8.000971    6.605538   -0.240262
 C          9.332419    6.179573   -0.223573
 C          9.498492    4.781769   -0.225533
 C         10.863804    4.429500   -0.193841
 C         11.716255    5.540510   -0.174666
 C         13.038547    5.062196   -0.191966
 C         14.303839    5.723356   -0.306295
 C         15.506993    4.930118   -0.440757
 S          7.979367    3.946170   -0.240954
 S         10.867945    7.067941   -0.185457
 C         18.275265   -1.688954    0.193567
 C         18.900694   -0.439843   -0.059489
 C         17.963587    0.594615   -0.134592
 C         16.628392    0.187795    0.048250
 C         15.742812    1.280606   -0.057747
 C         16.396626    2.493514   -0.309069
 C         15.419239    3.503749   -0.346692
 C         14.160702    2.860667   -0.150351
 C         12.956738    3.637761   -0.183557
 S         16.500521   -1.519395    0.324331
 S         18.132146    2.335245   -0.434120
 C          5.705665    5.705655   -0.285009
 C          4.601916    4.869434   -0.303616
 C          4.628481    3.391631   -0.281536
 O          5.613328    2.658336   -0.253071
 C          3.219732    2.936595   -0.297338
 C          2.746157    1.637962   -0.283613
 C          1.354806    1.407431   -0.301591
 C          0.502428    2.536629   -0.335885
 C          0.985263    3.841875   -0.350103
 C          2.371299    4.057924   -0.330128
 C          3.197912    5.286919   -0.339078
 C          2.681968    6.576491   -0.380045
 C          1.283918    6.864855   -0.409187
 N          0.155657    7.156935   -0.433376
 C          3.469069    7.766237   -0.401251
 N          4.062162    8.770398   -0.420877
 H          5.474965    6.763759   -0.292535
 H          3.447547    0.808496   -0.258369
 H          0.276864    4.658452   -0.376567
 C         19.036455   -2.874457    0.304209
 C         18.736701   -4.206137    0.539400
 C         17.389019   -4.765728    0.778996
 O         16.319758   -4.161181    0.794484
 C         17.558232   -6.217271    1.005191
 C         16.576350   -7.160093    1.275683
 C         16.972155   -8.487440    1.457599
 C         18.325235   -8.834318    1.365200
 C         19.311137   -7.879707    1.091183
 C         18.922295   -6.548118    0.907705
 C         19.693529   -5.311452    0.607512
 C         21.068381   -5.274072    0.424545
 C         21.910256   -6.424542    0.513364
 N         22.646113   -7.326319    0.573888
 C         21.814798   -4.095825    0.120701
 N         22.472976   -3.166064   -0.128846
 H         20.089778   -2.661634    0.169740
 H         15.535334   -6.858750    1.340901
 H         20.344239   -8.192634    1.029171
 N         14.381000    1.502672    0.053764
 N         11.616119    3.267653   -0.214351
 N         14.512281    7.033239   -0.357294
 N         16.612917    5.648244   -0.592625
 C         11.040075    1.983014   -0.613477
 H         10.168638    2.174753   -1.243099
 H         11.763585    1.423816   -1.206427
 H         10.726857    1.388279    0.248601
 C         13.485326    0.521262    0.665992
 H         13.002555   -0.114576   -0.080755
 H         14.070115   -0.109283    1.338978
 H         12.729871    1.033327    1.261775
 C         20.382776   -0.236994   -0.222321
 H         20.928053   -0.501304    0.690517
 H         20.791946   -0.851543   -1.030947
 H         20.606691    0.808021   -0.452250
 C          7.586813    8.052262   -0.240103
 H          6.972324    8.299683   -1.112163
 H          6.999076    8.303724    0.649539
 H          8.463435    8.705178   -0.255058
 S         16.146535    7.241735   -0.565241
 C          0.872235    0.029990   -0.285188
 C         -0.419251   -0.373878   -0.277393
 H          1.661171   -0.719273   -0.276661
 H         -1.206357    0.377518   -0.280721
 H         18.623075   -9.868763    1.508797
 H         16.232235   -9.253039    1.671250
 H         -0.573029    2.394171   -0.354050
 C         -0.907468   -1.748853   -0.262356
 C         -2.301025   -1.974144   -0.248154
 C         -0.061153   -2.881315   -0.262016
 C         -2.778010   -3.270277   -0.234398
 H         -2.999375   -1.141611   -0.247994
 C         -0.548952   -4.186368   -0.247913
 H          1.015167   -2.743555   -0.273844
 C         -4.185609   -3.724896   -0.218579
 C         -1.935213   -4.397096   -0.233874
 H          0.156468   -5.005923   -0.248752
 C         -4.162360   -5.206611   -0.210166
 O         -5.171379   -2.992286   -0.213316
 C         -2.768493   -5.622207   -0.217815
 C         -5.278177   -6.043661   -0.198834
 C         -2.253588   -6.922566   -0.211010
 C         -6.671671   -5.826170   -0.191609
 H         -5.053024   -7.102108   -0.194729
 C         -0.858244   -7.213124   -0.220320
 C         -3.039373   -8.110502   -0.193007
 C         -7.589529   -6.928457   -0.178197
 S         -7.525419   -4.260191   -0.194021
 N          0.271131   -7.506073   -0.227376
 N         -3.627258   -9.118986   -0.178255
 C         -8.905430   -6.490156   -0.176453
 C         -7.173862   -8.373243   -0.167044
 C         -9.066953   -5.083332   -0.186570
 S        -10.450508   -7.375501   -0.150927
 H         -6.578133   -8.630600   -1.049981
 H         -6.564523   -8.613332    0.711352
 H         -8.049341   -9.028242   -0.153989
 C        -10.412649   -4.721908   -0.168900
 C        -11.290805   -5.841639   -0.156300
 N        -11.152257   -3.558557   -0.200253
 C        -12.589870   -5.363375   -0.192295
 C        -12.507270   -3.916283   -0.182844
 C        -10.565425   -2.282862   -0.614413
 C        -13.861955   -6.023068   -0.291078
 C        -13.684185   -3.152177   -0.134115
 H        -10.265971   -1.673218    0.241901
 H         -9.683868   -2.489083   -1.225081
 H        -11.277705   -1.733572   -1.230293
 C        -15.062558   -5.228873   -0.401822
 N        -14.071420   -7.330275   -0.339222
 C        -14.968985   -3.798999   -0.312121
 N        -13.908655   -1.781106    0.039571
 N        -16.171868   -5.940920   -0.536237
 S        -15.711248   -7.538664   -0.519543
 C        -15.928317   -2.798842   -0.299150
 C        -15.265920   -1.561700   -0.075165
 C        -13.014113   -0.794478    0.646636
 S        -17.664448   -2.638374   -0.429986
 C        -16.142769   -0.479294    0.004007
 H        -13.603302   -0.147347    1.299748
 H        -12.270942   -1.301751    1.262103
 H        -12.516415   -0.177363   -0.105727
 C        -17.487182   -0.886792   -0.170081
 S        -16.018496    1.245391    0.240629
 C        -18.419973    0.140060   -0.118748
 C        -17.789891    1.405998    0.105723
 C        -19.902650   -0.052890   -0.278457
 C        -18.553206    2.590276    0.187354
 H        -20.450584    0.268977    0.614157
 H        -20.298443    0.522158   -1.122658
 H        -20.139638   -1.106029   -0.452407
 C        -18.246300    3.932393    0.389276
 H        -19.606768    2.377368    0.060409
 C        -16.893226    4.493833    0.609426
 C        -19.193289    5.040993    0.433935
 O        -15.827630    3.883446    0.637000
 C        -17.055356    5.951500    0.796443
 C        -18.419067    6.279125    0.694323
 C        -20.575806    5.001056    0.263069
 C        -16.072207    6.895232    1.035166
 C        -18.791781    7.621990    0.841417
 C        -21.409336    6.156900    0.331155
 C        -21.329945    3.820798   -0.003654
 C        -16.435475    8.247068    1.187014
 H        -15.032566    6.586777    1.104251
 C        -17.804251    8.576055    1.082916
 H        -19.821947    7.943704    0.773253
 N        -22.136844    7.067141    0.377083
 N        -21.999261    2.890825   -0.224242
 C        -15.385016    9.242107    1.443024
 H        -18.112122    9.611190    1.191304
 C        -15.545543   10.557023    1.646469
 H        -14.374565    8.835830    1.467054
 H        -14.688586   11.198269    1.827483
 H        -16.516779   11.043912    1.643778
       176
S1: Total Energy = -8996.94310963
 C          7.066779    5.499414   -0.140429
 C          7.957857    6.600221   -0.107368
 C          9.293685    6.177783   -0.107066
 C          9.466137    4.784004   -0.138671
 C         10.834041    4.436425   -0.120826
 C         11.683868    5.549648   -0.084755
 C         13.006514    5.076079   -0.126319
 C         14.269463    5.743060   -0.236411
 C         15.474564    4.956872   -0.396914
 S          7.946434    3.944577   -0.160340
 S         10.825922    7.073009   -0.058831
 C         18.261920   -1.669245    0.051968
 C         18.882395   -0.410803   -0.175913
 C         17.943611    0.621667   -0.217265
 C         16.609262    0.207888   -0.032024
 C         15.721824    1.299164   -0.101722
 C         16.370562    2.521214   -0.328878
 C         15.391847    3.528682   -0.333708
 C         14.134319    2.877618   -0.141730
 C         12.930268    3.650328   -0.148081
 S         16.487264   -1.506832    0.201796
 S         18.105123    2.370296   -0.475212
 C          5.661115    5.692900   -0.161222
 C          4.564314    4.851303   -0.185011
 C          4.602368    3.370683   -0.161262
 O          5.594978    2.645850   -0.145993
 C          3.198851    2.907407   -0.154115
 C          2.732796    1.610941   -0.125291
 C          1.337439    1.368470   -0.122283
 C          0.480518    2.503005   -0.150966
 C          0.955859    3.805590   -0.181482
 C          2.346216    4.034413   -0.183240
 C          3.154721    5.256309   -0.213923
 C          2.633951    6.555897   -0.273673
 C          1.238095    6.838969   -0.290138
 N          0.105809    7.122626   -0.304440
 C          3.415315    7.743407   -0.337174
 N          4.004073    8.750785   -0.393387
 H          5.424103    6.749526   -0.153105
 H          3.438230    0.784435   -0.104901
 H          0.244612    4.620147   -0.201885
 C         19.026346   -2.853268    0.129288
 C         18.731638   -4.192874    0.334458
 C         17.386479   -4.762496    0.560667
 O         16.315080   -4.162164    0.595325
 C         17.559733   -6.219935    0.744524
 C         16.581095   -7.173284    0.987499
 C         16.981093   -8.504493    1.129545
 C         18.334984   -8.844023    1.025895
 C         19.317818   -7.878248    0.780061
 C         18.924735   -6.543188    0.636649
 C         19.691495   -5.294704    0.373740
 C         21.068222   -5.247248    0.199211
 C         21.913609   -6.396655    0.258709
 N         22.652712   -7.297235    0.296363
 C         21.812693   -4.058315   -0.063719
 N         22.470530   -3.119923   -0.280389
 H         20.078274   -2.634760   -0.006844
 H         15.539166   -6.877287    1.062316
 H         20.351849   -8.185905    0.707937
 N         14.360001    1.515432    0.027387
 N         11.588226    3.278344   -0.173158
 N         14.473779    7.054348   -0.260722
 N         16.577154    5.681469   -0.541825
 C         11.010206    2.001088   -0.591055
 H         10.130917    2.203704   -1.206243
 H         11.727738    1.454970   -1.203245
 H         10.707665    1.388517    0.262407
 C         13.474011    0.519326    0.629949
 H         12.984617   -0.103210   -0.123734
 H         14.067914   -0.122518    1.284147
 H         12.723460    1.017360    1.243631
 C         20.362504   -0.202449   -0.348697
 H         20.920501   -0.511336    0.542027
 H         20.758186   -0.778630   -1.191822
 H         20.585635    0.851962   -0.531791
 C          7.540089    8.045854   -0.066091
 H          6.851265    8.298973   -0.878268
 H          7.031551    8.289674    0.873839
 H          8.410804    8.701803   -0.152000
 S         16.105788    7.273006   -0.476655
 C          0.862092    0.004468   -0.090882
 C         -0.438655   -0.409284   -0.083512
 H          1.649914   -0.745981   -0.072229
 H         -1.225273    0.342323   -0.103223
 H         18.636345   -9.881367    1.138080
 H         16.243632   -9.278393    1.320707
 H         -0.594725    2.355954   -0.149443
 C         -0.916770   -1.769826   -0.051872
 C         -2.311690   -2.008637   -0.054193
 C         -0.062425   -2.911655   -0.017224
 C         -2.783345   -3.303347   -0.024773
 H         -3.013840   -1.179532   -0.079213
 C         -0.539032   -4.210301    0.013398
 H          1.013018   -2.766328   -0.013655
 C         -4.182795   -3.754300   -0.022071
 C         -1.933969   -4.439455    0.010013
 H          0.169744   -5.027052    0.038787
 C         -4.154023   -5.242545    0.009029
 O         -5.179345   -3.035500   -0.042839
 C         -2.732952   -5.653265    0.038765
 C         -5.249211   -6.069960   -0.000769
 C         -2.230231   -6.960643    0.091511
 C         -6.664855   -5.851877   -0.028527
 H         -5.029426   -7.129864    0.014234
 C         -0.837264   -7.256591    0.111277
 C         -3.026665   -8.137794    0.138772
 C         -7.564239   -6.944746   -0.033379
 S         -7.510232   -4.288994   -0.055830
 N          0.293512   -7.545817    0.128364
 N         -3.633017   -9.135779    0.180473
 C         -8.895078   -6.503966   -0.065255
 C         -7.160319   -8.394568   -0.013919
 C         -9.045157   -5.107352   -0.082577
 S        -10.437396   -7.386665   -0.072635
 H         -6.599731   -8.669583   -0.914203
 H         -6.524127   -8.630314    0.845288
 H         -8.041299   -9.040052    0.038349
 C        -10.403091   -4.740400   -0.094909
 C        -11.275348   -5.852800   -0.097493
 N        -11.133063   -3.575402   -0.148965
 C        -12.577754   -5.365261   -0.168457
 C        -12.485559   -3.926137   -0.163194
 C        -10.519861   -2.296368   -0.514430
 C        -13.847733   -6.018971   -0.306618
 C        -13.667911   -3.150302   -0.156948
 H        -10.244072   -1.710642    0.365778
 H         -9.620141   -2.500286   -1.098205
 H        -11.203790   -1.727931   -1.143727
 C        -15.039197   -5.220759   -0.464246
 N        -14.062628   -7.326123   -0.356616
 C        -14.942116   -3.792647   -0.376022
 N        -13.889632   -1.783850    0.014728
 N        -16.146856   -5.929037   -0.634909
 S        -15.693574   -7.526184   -0.594294
 C        -15.901959   -2.785440   -0.389858
 C        -15.241086   -1.559119   -0.142904
 C        -13.007337   -0.789468    0.630026
 S        -17.630808   -2.618358   -0.573975
 C        -16.118602   -0.466829   -0.089965
 H        -13.610762   -0.140064    1.267323
 H        -12.275497   -1.289398    1.263599
 H        -12.499368   -0.177519   -0.119175
 C        -17.452734   -0.871786   -0.306081
 S        -15.990534    1.250565    0.148057
 C        -18.384207    0.166960   -0.281690
 C        -17.752951    1.418075   -0.039653
 C        -19.862055   -0.025301   -0.486257
 C        -18.517123    2.613901    0.022074
 H        -20.438217    0.315283    0.380664
 H        -20.226215    0.532015   -1.355900
 H        -20.095739   -1.081107   -0.646256
 C        -18.211370    3.943278    0.231604
 H        -19.567031    2.402198   -0.135596
 C        -16.858175    4.501006    0.478398
 C        -19.159777    5.065582    0.256722
 O        -15.799872    3.882004    0.529928
 C        -17.019453    5.957625    0.653969
 C        -18.379813    6.293949    0.523472
 C        -20.533757    5.027625    0.068442
 C        -16.034858    6.897368    0.906947
 C        -18.746878    7.641457    0.655216
 C        -21.365918    6.187460    0.116281
 C        -21.285567    3.843505   -0.195049
 C        -16.393038    8.251029    1.044144
 H        -14.998918    6.583087    0.998423
 C        -17.759055    8.588924    0.910129
 H        -19.773206    7.969490    0.563913
 N        -22.089978    7.100071    0.145272
 N        -21.946848    2.907976   -0.412444
 C        -15.342847    9.241124    1.315975
 H        -18.061408    9.626757    1.004950
 C        -15.504919   10.555886    1.520090
 H        -14.334125    8.832297    1.353681
 H        -14.649573   11.195277    1.714290
 H        -16.475157   11.044361    1.505900
