       120
S0: Total Energy = -3858.53056252
 C          5.247910    0.506616   -0.066005
 C          4.477038    1.685551   -0.068105
 C          3.104104    1.449456   -0.056806
 C          2.802584    0.091213   -0.037120
 C          1.374065   -0.115291   -0.012072
 C          0.768860    1.171730    0.007290
 C         -0.611179    1.293370    0.014440
 S          4.192757   -0.927687   -0.038385
 C          1.830386    2.296047   -0.013191
 H         -1.092324    2.266652    0.020052
 C         -5.247917   -0.506626    0.066015
 C         -4.477046   -1.685562    0.068110
 C         -3.104112   -1.449466    0.056837
 C         -2.802591   -0.091224    0.037169
 C         -1.374072    0.115281    0.012133
 C         -0.768867   -1.171740   -0.007232
 C          0.611172   -1.293380   -0.014378
 S         -4.192764    0.927676    0.038428
 C         -1.830393   -2.296058    0.013235
 H          1.092318   -2.266662   -0.019992
 C          6.664954    0.580616   -0.083913
 C          7.679222   -0.355301   -0.085112
 C          7.500703   -1.825141   -0.059669
 O          6.443029   -2.447585   -0.043913
 C          8.853697   -2.421836   -0.055822
 C          9.193365   -3.767560   -0.031389
 C         10.549154   -4.103053   -0.030813
 C         11.521395   -3.095526   -0.054264
 C         11.174006   -1.740673   -0.079368
 C          9.817318   -1.396391   -0.080486
 C          9.119885   -0.083423   -0.104676
 C          9.761210    1.144184   -0.143896
 C         11.181904    1.294345   -0.160180
 N         12.332502    1.478416   -0.175039
 C          9.094621    2.407225   -0.176769
 N          8.601676    3.463172   -0.206069
 H          6.980535    1.617960   -0.097625
 H          8.415730   -4.524952   -0.013129
 H         12.572899   -3.367013   -0.052920
 H         11.957759   -0.995990   -0.096602
 C         -6.664961   -0.580623    0.083902
 C         -7.679221    0.355303    0.085104
 C         -7.500685    1.825140    0.059636
 O         -6.443004    2.447573    0.043926
 C         -8.853674    2.421848    0.055695
 C         -9.193326    3.767574    0.031199
 C        -10.549113    4.103081    0.030527
 C        -11.521365    3.095564    0.053947
 C        -11.173991    1.740708    0.079118
 C         -9.817307    1.396412    0.080334
 C         -9.119887    0.083438    0.104627
 C         -9.761219   -1.144161    0.143924
 C        -11.181915   -1.294318    0.160128
 N        -12.332513   -1.478389    0.174924
 C         -9.094636   -2.407201    0.176976
 N         -8.601691   -3.463144    0.206419
 H         -6.980548   -1.617964    0.097586
 H         -8.415683    4.524958    0.012965
 H        -12.572866    3.367060    0.052525
 H        -11.957753    0.996034    0.096322
 C          1.858401    3.145248    1.276768
 C          2.615809    4.327441    1.311334
 C          2.731703    5.072272    2.481762
 C          2.096542    4.670334    3.666140
 C          1.349658    3.488930    3.630064
 C          1.232094    2.736567    2.458587
 H          3.114651    4.675159    0.411232
 H          3.326616    5.982983    2.474550
 H          0.848521    3.144426    4.531837
 H          0.647749    1.822674    2.478291
 C          1.615747    3.154037   -1.278382
 C          0.710948    4.226040   -1.264130
 C          0.444705    4.956066   -2.421184
 C          1.071961    4.649526   -3.636168
 C          1.969631    3.575701   -3.648090
 C          2.236824    2.839448   -2.493066
 H          0.215554    4.502999   -0.338390
 H         -0.262488    5.781380   -2.376519
 H          2.471238    3.307192   -4.575171
 H          2.936205    2.010997   -2.547071
 C         -1.615770   -3.154049    1.278428
 C         -0.710969   -4.226050    1.264185
 C         -0.444740   -4.956079    2.421241
 C         -1.072013   -4.649544    3.636216
 C         -1.969685   -3.575720    3.648130
 C         -2.236863   -2.839464    2.493105
 H         -0.215563   -4.503007    0.338451
 H          0.262455   -5.781392    2.376583
 H         -2.471305   -3.307214    4.575204
 H         -2.936247   -2.011015    2.547103
 C         -1.858393   -3.145257   -1.276725
 C         -2.615774   -4.327465   -1.311295
 C         -2.731654   -5.072295   -2.481727
 C         -2.096504   -4.670339   -3.666102
 C         -1.349648   -3.488915   -3.630024
 C         -1.232099   -2.736556   -2.458546
 H         -3.114610   -4.675197   -0.411195
 H         -3.326549   -5.983017   -2.474519
 H         -0.848524   -3.144394   -4.531799
 H         -0.647777   -1.822648   -2.478247
 C          2.202315    5.498105    4.925234
 H          1.546236    6.377381    4.879322
 H          1.914814    4.919986    5.809117
 C          0.809007    5.466292   -4.879314
 H          0.976033    4.877940   -5.787516
 H         -0.219320    5.842613   -4.900964
 C         -0.809079   -5.466312    4.879365
 H          0.219191   -5.842791    4.900941
 H         -0.975940   -4.877907    5.787564
 C         -2.202233   -5.498116   -4.925197
 H         -1.915179   -4.919852   -5.809131
 H         -1.545769   -6.377116   -4.879469
 H          3.222959    5.866848    5.077169
 H          1.474418    6.338529   -4.929219
 H         -1.474623   -6.338443    4.929354
 H         -3.222756   -5.867282   -5.076898
 H         -4.944421   -2.664311    0.076256
 H          4.944413    2.664301   -0.076268
 H        -10.853042    5.145433    0.011522
 H         10.853095   -5.145404   -0.011860
       120
T1: Total Energy = -3858.48298807
 C         -5.232429   -0.508748   -0.060238
 C         -4.446349   -1.701529   -0.065998
 C         -3.091204   -1.466458   -0.049552
 C         -2.774973   -0.087785   -0.024514
 C         -1.382839    0.113234   -0.004664
 C         -0.755539   -1.189075    0.005019
 C          0.609207   -1.306096    0.003106
 S         -4.183470    0.935540   -0.025697
 C         -1.817901   -2.312961   -0.012357
 H          1.096979   -2.275852    0.000551
 C          5.232438    0.508764    0.060241
 C          4.446359    1.701546    0.065958
 C          3.091214    1.466475    0.049458
 C          2.774984    0.087801    0.024415
 C          1.382850   -0.113218    0.004541
 C          0.755551    1.189091   -0.005155
 C         -0.609196    1.306112   -0.003236
 S          4.183481   -0.935523    0.025636
 C          1.817912    2.312977    0.012223
 H         -1.096966    2.275868   -0.000678
 C         -6.637587   -0.588809   -0.080688
 C         -7.662362    0.356606   -0.080450
 C         -7.485289    1.830081   -0.051863
 O         -6.426926    2.450972   -0.030612
 C         -8.837413    2.426805   -0.053840
 C         -9.179552    3.771037   -0.030233
 C        -10.537190    4.104199   -0.036284
 C        -11.504536    3.093789   -0.065455
 C        -11.153036    1.738074   -0.089589
 C         -9.796936    1.397470   -0.083926
 C         -9.091333    0.086784   -0.104727
 C         -9.732404   -1.150127   -0.143993
 C        -11.150856   -1.301041   -0.164880
 N        -12.302149   -1.485673   -0.183442
 C         -9.068272   -2.412311   -0.171349
 N         -8.581162   -3.472008   -0.196149
 H         -6.956179   -1.624280   -0.099024
 H         -8.403791    4.530337   -0.007593
 H        -12.557167    3.361291   -0.069521
 H        -11.935076    0.991683   -0.111562
 C          6.637595    0.588816    0.080759
 C          7.662353   -0.356614    0.080571
 C          7.485252   -1.830085    0.052004
 O          6.426876   -2.450953    0.030691
 C          8.837365   -2.426834    0.054039
 C          9.179477   -3.771074    0.030453
 C         10.537108   -4.104263    0.036557
 C         11.504473   -3.093873    0.065750
 C         11.153000   -1.738150    0.089860
 C          9.796907   -1.397518    0.084153
 C          9.091327   -0.086817    0.104904
 C          9.732409    1.150089    0.144187
 C         11.150860    1.300996    0.165164
 N         12.302149    1.485640    0.183809
 C          9.068281    2.412276    0.171489
 N          8.581163    3.471971    0.196222
 H          6.956198    1.624284    0.099107
 H          8.403701   -4.530358    0.007792
 H         12.557098   -3.361396    0.069851
 H         11.935056   -0.991776    0.111847
 C         -1.845576   -3.158475    1.279790
 C         -2.589768   -4.349129    1.313721
 C         -2.705185   -5.089275    2.486848
 C         -2.083968   -4.673637    3.674155
 C         -1.351633   -3.483128    3.638483
 C         -1.234904   -2.734869    2.464493
 H         -3.078328   -4.706691    0.412016
 H         -3.288844   -6.007139    2.479711
 H         -0.862406   -3.127873    4.542502
 H         -0.662345   -1.813505    2.484713
 C         -1.608569   -3.167578   -1.279627
 C         -0.709321   -4.244438   -1.269008
 C         -0.446592   -4.970071   -2.429210
 C         -1.071706   -4.654141   -3.643317
 C         -1.963239   -3.575387   -3.651141
 C         -2.226584   -2.842560   -2.492972
 H         -0.216028   -4.528270   -0.344300
 H          0.255859   -5.799529   -2.388154
 H         -2.462527   -3.299652   -4.577228
 H         -2.921474   -2.010127   -2.544305
 C          1.608560    3.167611    1.279477
 C          0.709293    4.244454    1.268841
 C          0.446547    4.970098    2.429032
 C          1.071662    4.654195    3.643146
 C          1.963213    3.575456    3.650988
 C          2.226575    2.842618    2.492829
 H          0.215996    4.528264    0.344128
 H         -0.255919    5.799543    2.387963
 H          2.462502    3.299741    4.577080
 H          2.921478    2.010196    2.544176
 C          1.845616    3.158478   -1.279933
 C          2.589753    4.349167   -1.313832
 C          2.705198    5.089312   -2.486956
 C          2.084064    4.673640   -3.674294
 C          1.351780    3.483098   -3.638655
 C          1.235023    2.734840   -2.464666
 H          3.078247    4.706757   -0.412102
 H          3.288814    6.007203   -2.479793
 H          0.862618    3.127816   -4.542698
 H          0.662505    1.813451   -2.484912
 C         -2.191273   -5.495902    4.936499
 H         -1.544268   -6.381718    4.889663
 H         -1.893911   -4.917619    5.816879
 C         -0.811308   -5.466521   -4.889679
 H         -1.001124   -4.881704   -5.795525
 H          0.223118   -5.824754   -4.925084
 C          0.811245    5.466586    4.889496
 H         -0.223191    5.824793    4.924896
 H          1.001075    4.881786    5.795351
 C          2.191396    5.495903   -4.936636
 H          1.894156    4.917587   -5.817035
 H          1.544306    6.381661   -4.889859
 H         -3.214750   -5.854189    5.094549
 H         -1.461655   -6.350482   -4.929527
 H          1.461569    6.350564    4.929331
 H          3.214853    5.854282   -5.094607
 H          4.917187    2.678082    0.079408
 H         -4.917178   -2.678065   -0.079426
 H         10.843725   -5.145797    0.018490
 H        -10.843828    5.145726   -0.018196
       120
S1: Total Energy = -3858.46240684
 C         -5.234900   -0.511276   -0.058883
 C         -4.457412   -1.696662   -0.062906
 C         -3.093059   -1.459569   -0.046968
 C         -2.783277   -0.088017   -0.024753
 C         -1.379935    0.115435   -0.006427
 C         -0.758849   -1.183816    0.008078
 C          0.610849   -1.303357    0.008634
 S         -4.186362    0.932305   -0.026197
 C         -1.821283   -2.306262   -0.007847
 H          1.096042   -2.274321    0.010884
 C          5.234902    0.511274    0.058825
 C          4.457413    1.696660    0.062834
 C          3.093061    1.459568    0.046890
 C          2.783279    0.088015    0.024675
 C          1.379937   -0.115436    0.006352
 C          0.758850    1.183814   -0.008153
 C         -0.610847    1.303355   -0.008709
 S          4.186364   -0.932306    0.026128
 C          1.821286    2.306261    0.007767
 H         -1.096040    2.274320   -0.010960
 C         -6.649587   -0.588592   -0.080804
 C         -7.667615    0.353790   -0.081306
 C         -7.486484    1.827102   -0.048388
 O         -6.425547    2.444365   -0.024418
 C         -8.836334    2.426368   -0.049359
 C         -9.175232    3.771076   -0.021259
 C        -10.532294    4.108310   -0.027233
 C        -11.502268    3.099792   -0.061001
 C        -11.155192    1.743460   -0.089659
 C         -9.799028    1.397328   -0.084053
 C         -9.101907    0.087563   -0.108922
 C         -9.744631   -1.150251   -0.154940
 C        -11.162347   -1.299627   -0.179132
 N        -12.314652   -1.481409   -0.200611
 C         -9.080557   -2.411100   -0.187389
 N         -8.589203   -3.469533   -0.216423
 H         -6.967163   -1.624633   -0.099518
 H         -8.397436    4.528240    0.004759
 H        -12.554193    3.370442   -0.064997
 H        -11.939042    0.999015   -0.114910
 C          6.649588    0.588589    0.080787
 C          7.667615   -0.353793    0.081335
 C          7.486486   -1.827106    0.048416
 O          6.425550   -2.444368    0.024391
 C          8.836335   -2.426372    0.049466
 C          9.175234   -3.771080    0.021389
 C         10.532296   -4.108314    0.027440
 C         11.502269   -3.099796    0.061263
 C         11.155192   -1.743465    0.089899
 C          9.799028   -1.397332    0.084213
 C          9.101906   -0.087567    0.109030
 C          9.744628    1.150248    0.155080
 C         11.162342    1.299624    0.179363
 N         12.314646    1.481406    0.200913
 C          9.080552    2.411097    0.187467
 N          8.589196    3.469530    0.216448
 H          6.967164    1.624630    0.099514
 H          8.397440   -4.528244   -0.004672
 H         12.554193   -3.370447    0.065319
 H         11.939041   -0.999020    0.115192
 C         -1.852216   -3.147886    1.286144
 C         -2.592113   -4.341303    1.321000
 C         -2.710515   -5.076907    2.496651
 C         -2.096540   -4.654120    3.685258
 C         -1.368703   -3.460488    3.648647
 C         -1.249534   -2.716503    2.472654
 H         -3.074890   -4.704417    0.418446
 H         -3.290853   -5.996810    2.490594
 H         -0.885773   -3.099644    4.553785
 H         -0.681879   -1.792019    2.492394
 C         -1.609454   -3.160011   -1.274809
 C         -0.718394   -4.243509   -1.262353
 C         -0.455662   -4.967861   -2.423376
 C         -1.072632   -4.643904   -3.639678
 C         -1.955737   -3.557952   -3.649262
 C         -2.218597   -2.826118   -2.490718
 H         -0.231842   -4.533632   -0.336056
 H          0.240109   -5.802807   -2.381371
 H         -2.448012   -3.275825   -4.577122
 H         -2.905595   -1.987137   -2.542971
 C          1.609458    3.160014    1.274727
 C          0.718422    4.243531    1.262258
 C          0.455693    4.967892    2.423277
 C          1.072642    4.643926    3.639586
 C          1.955724    3.557954    3.649182
 C          2.218582    2.826111    2.490643
 H          0.231888    4.533663    0.335955
 H         -0.240059    5.802853    2.381261
 H          2.447982    3.275818    4.577049
 H          2.905560    1.987116    2.542907
 C          1.852216    3.147882   -1.286225
 C          2.592078    4.341319   -1.321074
 C          2.710477    5.076922   -2.496728
 C          2.096532    4.654114   -3.685342
 C          1.368732    3.460457   -3.648738
 C          1.249565    2.716475   -2.472744
 H          3.074832    4.704451   -0.418515
 H          3.290790    5.996840   -2.490667
 H          0.885830    3.099593   -4.553884
 H          0.681940    1.791974   -2.492489
 C         -2.205643   -5.471937    4.950102
 H         -1.537287   -6.342515    4.918396
 H         -1.935792   -4.882596    5.832011
 C         -0.813231   -5.455048   -4.886850
 H         -0.971318   -4.859460   -5.791807
 H          0.211127   -5.841926   -4.906911
 C          0.813250    5.455078    4.886754
 H         -0.211049    5.842117    4.906728
 H          0.971158    4.859441    5.791711
 C          2.205606    5.471935   -4.950185
 H          1.936184    4.882464   -5.832139
 H          1.536894    6.342248   -4.918659
 H         -3.222857   -5.853210    5.093254
 H         -1.487633   -6.319855   -4.943787
 H          1.487786    6.319775    4.943779
 H          3.222701    5.853605   -5.093115
 H          4.925609    2.674422    0.075200
 H         -4.925607   -2.674424   -0.075265
 H         10.836331   -5.150546    0.005866
 H        -10.836328    5.150542   -0.005641
