        88
S0: Total Energy = -2902.34011064
 C         -5.137408   -0.625653   -0.221305
 C         -4.876035   -1.138642    1.049806
 C         -4.127603   -2.376095    1.195160
 C         -3.665775   -3.049437    0.062445
 C         -3.938348   -2.514566   -1.262941
 C         -4.661562   -1.328159   -1.401391
 C         -4.249067   -0.336118   -2.378784
 C         -4.468081    0.980824   -1.802043
 C         -5.015975    0.801320   -0.469032
 C         -4.632526    1.658804    0.564189
 C         -4.359976    1.123898    1.889533
 C         -4.482155   -0.246643    2.127583
 C         -3.493230   -0.933163    2.940067
 C         -3.273718   -2.249949    2.363256
 C         -1.991785   -2.803104    2.353098
 C         -1.510119   -3.502047    1.172316
 C         -2.331787   -3.620375    0.050567
 C         -1.775392   -3.432597   -1.279555
 C         -2.772620   -2.755505   -2.092827
 C         -2.375282   -1.804428   -3.033606
 C         -3.129909   -0.569960   -3.180143
 C         -2.184951    0.503075   -3.434885
 C         -2.394797    1.765535   -2.881810
 C         -3.559353    2.011546   -2.049603
 C         -3.158246    2.902770   -0.972702
 C         -3.684869    2.727410    0.307630
 C         -2.820581    2.849173    1.470606
 C         -3.244151    1.862288    2.451092
 C         -2.293635    1.204985    3.233225
 C         -2.421865   -0.221847    3.483762
 C         -1.088852   -0.798391    3.470259
 C         -0.878397   -2.060769    2.917350
 C         -0.850455   -0.073371   -3.442648
 C         -0.966606   -1.491576   -3.198596
 C          0.220150    0.632993   -2.887825
 C          0.001803    1.946132   -2.312209
 C         -1.279311    2.504842   -2.314048
 C          0.885909    2.102843   -1.182532
 C          0.425493    2.750595   -0.046767
 C         -0.911318    3.310503   -0.026006
 C         -1.747698    3.205725   -1.142430
 C         -1.463772    3.129183    1.304516
 C         -0.471548    2.446041    2.114956
 C          0.700925    2.207721    1.297587
 C         -0.882548    1.506380    3.066348
 C         -0.143879    0.274910    3.210110
 C          0.969733    0.044656    2.397470
 C          1.189793   -1.268671    1.823013
 C          0.285905   -2.302757    2.081063
 C         -0.100722   -3.189985    1.009956
 C          0.434451   -2.996721   -0.267732
 C         -0.423391   -3.122862   -1.432419
 C         -0.006580   -2.132971   -2.409073
 C          1.113011   -1.393716   -1.861172
 C          1.391086   -1.936225   -0.516127
 C          1.788762   -1.103435    0.519590
 C          1.426479    1.037539    1.456121
 C          1.242207   -0.037638   -2.120486
 C          1.817994    0.934852   -1.143034
 C          2.123245    0.342536    0.331176
 C          3.216153    0.913752   -0.550262
 C          3.828968    2.244432   -0.172372
 C          4.011284    3.226427   -1.156475
 C          4.647647    4.429955   -0.852432
 C          5.112855    4.668600    0.443099
 C          4.938759    3.696261    1.429132
 C          4.300882    2.491967    1.122992
 C          4.226979   -0.066248   -1.164665
 C          5.291546   -0.557209   -0.174898
 C          6.277013   -1.521790   -0.837676
 C          7.344273   -2.023443    0.114888
 O          8.185560   -2.874366   -0.509099
 C          9.245659   -3.415010    0.301568
 O          7.450428   -1.716307    1.285400
 H          3.648783    3.047748   -2.165599
 H          4.777277    5.181465   -1.626466
 H          5.606253    5.606702    0.681980
 H          5.298007    3.872009    2.439364
 H          4.167844    1.742247    1.897395
 H          3.703250   -0.929248   -1.586863
 H          4.708577    0.445053   -2.008433
 H          5.842515    0.291100    0.243769
 H          4.806934   -1.059656    0.670746
 H          5.759662   -2.396594   -1.253253
 H          6.783577   -1.047172   -1.688564
 H          8.835383   -3.981519    1.141346
 H          9.813734   -4.069812   -0.359059
 H          9.881802   -2.613317    0.685117
        88
T1: Total Energy = -2902.28516203
 C         -5.133605   -0.631583   -0.208799
 C         -4.872524   -1.119840    1.068734
 C         -4.116210   -2.354861    1.239596
 C         -3.651363   -3.052345    0.102147
 C         -3.919941   -2.550143   -1.211708
 C         -4.651784   -1.353406   -1.380570
 C         -4.243280   -0.393201   -2.361066
 C         -4.465622    0.940735   -1.807576
 C         -5.027599    0.791367   -0.478291
 C         -4.656854    1.673745    0.541404
 C         -4.384189    1.163961    1.875128
 C         -4.494164   -0.206328    2.132213
 C         -3.494595   -0.875246    2.943781
 C         -3.272434   -2.207831    2.386917
 C         -1.972868   -2.764393    2.392312
 C         -1.490960   -3.488287    1.220296
 C         -2.308181   -3.625613    0.103207
 C         -1.751216   -3.477018   -1.228943
 C         -2.747082   -2.805124   -2.043733
 C         -2.354032   -1.875028   -3.000306
 C         -3.110252   -0.638410   -3.170127
 C         -2.176563    0.412489   -3.433370
 C         -2.384228    1.705093   -2.892439
 C         -3.563099    1.967053   -2.069641
 C         -3.179205    2.886383   -1.015623
 C         -3.714076    2.741566    0.269177
 C         -2.855121    2.888493    1.429498
 C         -3.273628    1.917957    2.423917
 C         -2.315403    1.270633    3.211635
 C         -2.430496   -0.151398    3.472976
 C         -1.085732   -0.723404    3.460955
 C         -0.876037   -2.018728    2.927154
 C         -0.835276   -0.160094   -3.438604
 C         -0.944285   -1.572960   -3.180196
 C          0.231372    0.556584   -2.894328
 C          0.012951    1.885676   -2.336176
 C         -1.292361    2.444975   -2.351626
 C          0.877490    2.059902   -1.228713
 C          0.407933    2.735586   -0.078909
 C         -0.939032    3.304868   -0.074566
 C         -1.766756    3.173136   -1.185412
 C         -1.493211    3.165509    1.256911
 C         -0.501957    2.486359    2.066259
 C          0.676436    2.231478    1.239311
 C         -0.906319    1.563118    3.025727
 C         -0.159839    0.325953    3.191532
 C          0.974777    0.085528    2.371692
 C          1.196684   -1.246873    1.822855
 C          0.297607   -2.277435    2.100732
 C         -0.078579   -3.190614    1.052459
 C          0.461835   -3.029937   -0.230932
 C         -0.394096   -3.177667   -1.391831
 C          0.020656   -2.206832   -2.385193
 C          1.136204   -1.455250   -1.849566
 C          1.414087   -1.971854   -0.497455
 C          1.801530   -1.112361    0.524516
 C          1.418802    1.043410    1.429528
 C          1.255862   -0.098616   -2.126800
 C          1.812988    0.892337   -1.156026
 C          2.114385    0.335238    0.307929
 C          3.217597    0.904484   -0.568113
 C          3.808099    2.248844   -0.206704
 C          3.981474    3.218858   -1.204201
 C          4.592783    4.438481   -0.912475
 C          5.042548    4.704710    0.383132
 C          4.877628    3.744127    1.382133
 C          4.264828    2.523609    1.088709
 C          4.241143   -0.073261   -1.161807
 C          5.306459   -0.535203   -0.158643
 C          6.306551   -1.498872   -0.800468
 C          7.374086   -1.972105    0.166277
 O          8.229292   -2.822396   -0.439073
 C          9.290716   -3.337789    0.386253
 O          7.469153   -1.644823    1.332289
 H          3.630466    3.018705   -2.213306
 H          4.714394    5.181136   -1.696247
 H          5.516245    5.655298    0.612117
 H          5.224094    3.941700    2.392762
 H          4.138734    1.782868    1.872881
 H          3.729036   -0.948923   -1.571928
 H          4.721111    0.429732   -2.011521
 H          5.845379    0.326266    0.248661
 H          4.822948   -1.029332    0.692474
 H          5.801677   -2.386456   -1.204097
 H          6.812272   -1.032466   -1.656362
 H          8.881922   -3.898195    1.230832
 H          9.871911   -3.994027   -0.261393
 H          9.913523   -2.522554    0.763026
        88
S1: Total Energy = -2902.27474442
 C         -5.138726   -0.625734   -0.205320
 C         -4.877918   -1.113473    1.071363
 C         -4.120687   -2.348979    1.243259
 C         -3.657199   -3.047124    0.104093
 C         -3.925287   -2.545940   -1.207726
 C         -4.656299   -1.347428   -1.378191
 C         -4.248375   -0.390375   -2.358851
 C         -4.466545    0.942671   -1.807043
 C         -5.028445    0.796655   -0.475884
 C         -4.652738    1.677715    0.541255
 C         -4.380104    1.168005    1.875304
 C         -4.495419   -0.200215    2.133560
 C         -3.495803   -0.872626    2.944569
 C         -3.277855   -2.204120    2.388855
 C         -1.978503   -2.766809    2.393498
 C         -1.497963   -3.486214    1.221989
 C         -2.314353   -3.624221    0.103197
 C         -1.759200   -3.481054   -1.228556
 C         -2.752432   -2.805292   -2.040519
 C         -2.360520   -1.873931   -2.997684
 C         -3.115914   -0.640900   -3.171047
 C         -2.176730    0.408821   -3.424351
 C         -2.382194    1.701186   -2.886477
 C         -3.563481    1.970017   -2.069009
 C         -3.176156    2.888492   -1.018227
 C         -3.706897    2.744433    0.269057
 C         -2.848795    2.891124    1.428389
 C         -3.266878    1.921715    2.422212
 C         -2.311855    1.271944    3.212860
 C         -2.431160   -0.147730    3.474087
 C         -1.086885   -0.721159    3.453466
 C         -0.880162   -2.014737    2.918867
 C         -0.836081   -0.163299   -3.439113
 C         -0.948057   -1.574499   -3.179505
 C          0.231869    0.556506   -2.896821
 C          0.015863    1.884008   -2.342244
 C         -1.287838    2.445732   -2.352975
 C          0.878443    2.054315   -1.229461
 C          0.410320    2.729458   -0.084351
 C         -0.932190    3.303753   -0.076928
 C         -1.760309    3.171440   -1.189731
 C         -1.483924    3.169243    1.255655
 C         -0.495259    2.485596    2.063780
 C          0.679430    2.224124    1.237453
 C         -0.899466    1.560880    3.024593
 C         -0.155482    0.327311    3.191015
 C          0.978997    0.081596    2.373688
 C          1.197662   -1.247795    1.824619
 C          0.296259   -2.279574    2.099776
 C         -0.082739   -3.191445    1.052966
 C          0.454706   -3.031796   -0.231852
 C         -0.397324   -3.181711   -1.392353
 C          0.014399   -2.210259   -2.382877
 C          1.131077   -1.455000   -1.847647
 C          1.408670   -1.971091   -0.496294
 C          1.801259   -1.114205    0.524107
 C          1.418981    1.039440    1.425769
 C          1.255763   -0.100703   -2.127622
 C          1.815059    0.889385   -1.157334
 C          2.116260    0.332624    0.306139
 C          3.220358    0.902025   -0.569573
 C          3.809693    2.246556   -0.207530
 C          3.983164    3.216718   -1.204779
 C          4.593173    4.436784   -0.912053
 C          5.041409    4.703017    0.384081
 C          4.876294    3.742151    1.382742
 C          4.264719    2.521190    1.088465
 C          4.243766   -0.075810   -1.163109
 C          5.309208   -0.536969   -0.159649
 C          6.310047   -1.500037   -0.801203
 C          7.377546   -1.972148    0.166197
 O          8.232733   -2.823075   -0.438050
 C          9.294154   -3.337537    0.387947
 O          7.472171   -1.643572    1.331879
 H          3.633441    3.016548   -2.214337
 H          4.714755    5.179794   -1.695456
 H          5.514008    5.653958    0.613763
 H          5.221402    3.939834    2.393784
 H          4.138780    1.780072    1.872333
 H          3.731704   -0.951563   -1.573072
 H          4.723571    0.427306   -2.012787
 H          5.847475    0.324927    0.247548
 H          4.825969   -1.031293    0.691523
 H          5.805962   -2.388009   -1.204907
 H          6.815751   -1.033253   -1.656890
 H          8.885280   -3.896878    1.233183
 H          9.875301   -3.994584   -0.258908
 H          9.916965   -2.521841    0.763696
