        98
S0: Total Energy = -3283.47046087
 C         -2.018225    0.467268    2.216318
 C         -2.582289    1.188874    1.038238
 C         -1.739169    2.415177    0.920057
 C         -0.946208    2.546928    2.116541
 C         -1.117050    1.351685    2.911771
 C         -2.691297    0.301224   -0.322565
 C         -1.942980    0.829859   -1.493613
 C         -1.321578    2.062428   -1.506889
 C         -1.217381    2.865512   -0.284933
 C          0.079903    3.505401   -0.319454
 C          0.817178    3.681685    0.847667
 C          0.294791    3.196255    2.094560
 C          1.410094    2.660329    2.847222
 C          1.245847    1.512518    3.610822
 C         -0.041048    0.849813    3.654888
 C          0.209579   -0.564827    3.671630
 C         -0.623992   -1.417536    2.954410
 C         -1.754200   -0.896330    2.217022
 C         -1.860082   -1.692961    0.989791
 C         -2.226667   -1.107943   -0.207122
 C         -0.053070   -2.524080    2.219209
 C         -0.806450   -2.688516    1.011662
 C         -1.330158   -0.271408   -2.189046
 C         -1.501671   -1.455760   -1.402746
 C          1.644217   -0.780607    3.661167
 C          2.284127    0.502682    3.626717
 C          2.619177    2.842436    2.070730
 C          2.252580    3.469886    0.834048
 C          0.756629    3.131672   -1.541804
 C         -0.100279    2.240904   -2.266225
 C          0.441266    1.207476   -3.077836
 C         -0.198940   -0.105941   -3.034943
 C         -0.543805   -2.506454   -1.438948
 C         -0.183574   -3.153089   -0.178200
 C          1.337522   -2.819489    2.273441
 C          2.219866   -1.908580    3.019058
 C          3.691466    1.910356    2.135266
 C          3.517306    0.693641    2.944492
 C          2.173033    3.016983   -1.608057
 C          2.949533    3.187681   -0.370291
 C          1.834904    1.273394   -3.347429
 C          2.689878    2.167303   -2.622396
 C          0.417308   -2.449763   -2.481868
 C          0.587515   -1.263281   -3.270986
 C          1.123411   -3.694844   -0.043316
 C          1.874040   -3.530952    1.167344
 C          4.177013    2.484268   -0.235080
 C          4.542810    1.854333    1.000328
 C          4.207709   -0.484614    2.555718
 C          3.568258   -1.767766    2.592885
 C          4.107317   -2.568092    1.510592
 C          3.276421   -3.434826    0.812656
 C          2.056364   -3.699194   -1.152068
 C          1.709091   -3.089495   -2.351860
 C          1.985183   -1.163016   -3.633336
 C          2.598062    0.083974   -3.667947
 C          3.987826    1.534767   -2.492364
 C          4.716783    1.688575   -1.320433
 C          5.141889   -0.485856    1.445345
 C          5.306077    0.662025    0.681924
 C          3.941520    0.245741   -3.151690
 C          5.431551    0.563255   -0.756757
 C          5.095851   -1.782346    0.803340
 C          3.397746   -3.551990   -0.626007
 C          2.687289   -2.301191   -3.074708
 C          4.342919   -2.788880   -1.316005
 C          3.978851   -2.148968   -2.567903
 C          4.621029   -0.846890   -2.607772
 C          5.212718   -1.884673   -0.586343
 C          5.384335   -0.685670   -1.383691
 C         -3.902004    0.924215    0.346098
 C         -4.574942    2.095931   -0.335428
 C         -4.923425    3.225922    0.417684
 H         -4.647075    3.276769    1.467783
 C         -5.615691    4.285976   -0.168184
 H         -5.874345    5.156082    0.429029
 C         -5.971047    4.229783   -1.518033
 H         -6.507654    5.055953   -1.976272
 C         -5.631438    3.107496   -2.275272
 H         -5.904281    3.054021   -3.325590
 C         -4.937835    2.047375   -1.687325
 H         -4.675627    1.179203   -2.284905
 C         -4.890625   -0.016610    1.052214
 H         -5.492010    0.596380    1.736164
 H         -4.345988   -0.730552    1.677501
 C         -5.809445   -0.784150    0.092962
 H         -6.378056   -0.086243   -0.530162
 H         -5.205997   -1.390831   -0.592546
 C         -6.781017   -1.692984    0.848596
 H         -6.242870   -2.414807    1.477325
 H         -7.411016   -1.114493    1.536976
 C         -7.696389   -2.475152   -0.072276
 O         -7.682562   -2.435325   -1.286421
 O         -8.550306   -3.242932    0.636298
 C         -9.469980   -4.036262   -0.137052
 H         -8.927624   -4.732354   -0.781801
 H        -10.070676   -4.580419    0.591617
 H        -10.104823   -3.394779   -0.753409
        98
T1: Total Energy = -3283.41496567
 C         -2.004331    0.413849    2.224223
 C         -2.553432    1.154711    1.046292
 C         -1.721331    2.395354    0.960142
 C         -0.939802    2.501740    2.161480
 C         -1.112443    1.288150    2.935019
 C         -2.669303    0.311202   -0.305225
 C         -1.934309    0.858796   -1.482063
 C         -1.306281    2.118190   -1.471566
 C         -1.203867    2.883010   -0.235796
 C          0.094207    3.528441   -0.253389
 C          0.830951    3.670231    0.916856
 C          0.305043    3.147671    2.153382
 C          1.415336    2.596739    2.891868
 C          1.250017    1.432321    3.633747
 C         -0.032729    0.772161    3.666533
 C          0.217103   -0.647555    3.667731
 C         -0.618547   -1.489329    2.942785
 C         -1.748174   -0.954343    2.209128
 C         -1.855820   -1.731452    0.979697
 C         -2.222997   -1.111911   -0.228629
 C         -0.054013   -2.590477    2.196157
 C         -0.815858   -2.723647    0.978810
 C         -1.343122   -0.202988   -2.191021
 C         -1.520297   -1.435073   -1.407127
 C          1.651114   -0.863137    3.650723
 C          2.290043    0.420912    3.632946
 C          2.627748    2.795875    2.119844
 C          2.265242    3.455976    0.899231
 C          0.768405    3.192084   -1.486790
 C         -0.100189    2.308466   -2.226725
 C          0.437511    1.284093   -3.056857
 C         -0.205949   -0.027221   -3.035689
 C         -0.556764   -2.485822   -1.469340
 C         -0.194949   -3.160824   -0.225215
 C          1.337833   -2.880852    2.232609
 C          2.224009   -1.980991    2.987866
 C          3.694592    1.857999    2.164058
 C          3.519245    0.625017    2.949606
 C          2.183060    3.063474   -1.553677
 C          2.960898    3.199774   -0.312093
 C          1.829511    1.350593   -3.333388
 C          2.696248    2.238317   -2.588985
 C          0.393789   -2.416202   -2.514593
 C          0.570016   -1.178062   -3.304249
 C          1.109921   -3.711522   -0.107857
 C          1.869266   -3.576457    1.114814
 C          4.184114    2.485735   -0.193516
 C          4.546058    1.824842    1.027365
 C          4.208478   -0.547043    2.537973
 C          3.569967   -1.831649    2.556497
 C          4.103332   -2.612296    1.457901
 C          3.265917   -3.464950    0.748413
 C          2.029961   -3.694530   -1.212157
 C          1.669501   -3.043973   -2.404460
 C          1.948396   -1.081202   -3.655382
 C          2.579688    0.174558   -3.677131
 C          3.984001    1.588061   -2.470206
 C          4.718309    1.711900   -1.296449
 C          5.137511   -0.527084    1.423705
 C          5.303055    0.635725    0.682888
 C          3.921554    0.312027   -3.154861
 C          5.422546    0.567212   -0.757711
 C          5.084087   -1.810500    0.756792
 C          3.372846   -3.551018   -0.694212
 C          2.646282   -2.232307   -3.109620
 C          4.313493   -2.771385   -1.374963
 C          3.937832   -2.096463   -2.608518
 C          4.593834   -0.797177   -2.632395
 C          5.188812   -1.885305   -0.635532
 C          5.361884   -0.667564   -1.411074
 C         -3.891883    0.919387    0.363797
 C         -4.556714    2.108886   -0.291992
 C         -4.918801    3.214714    0.490463
 H         -4.658517    3.233090    1.545752
 C         -5.602013    4.292179   -0.073302
 H         -5.869927    5.143748    0.546100
 C         -5.936021    4.277704   -1.429955
 H         -6.465695    5.117673   -1.870775
 C         -5.583520    3.179820   -2.215994
 H         -5.839127    3.158954   -3.271761
 C         -4.898429    2.101780   -1.650299
 H         -4.627003    1.252233   -2.269976
 C         -4.882019   -0.030236    1.052639
 H         -5.484554    0.571993    1.745127
 H         -4.340447   -0.756402    1.666588
 C         -5.800549   -0.778643    0.077400
 H         -6.362311   -0.068175   -0.537852
 H         -5.196665   -1.378023   -0.613986
 C         -6.780147   -1.693147    0.815575
 H         -6.248281   -2.424839    1.438241
 H         -7.412086   -1.121134    1.507552
 C         -7.692668   -2.460542   -0.120552
 O         -7.669844   -2.407237   -1.333999
 O         -8.555135   -3.231951    0.573446
 C         -9.472827   -4.012738   -0.215017
 H         -8.928977   -4.705106   -0.862521
 H        -10.081917   -4.561039    0.503473
 H        -10.099470   -3.361812   -0.829837
        98
S1: Total Energy = -3283.40407275
 C         -1.981737    0.399150    2.206345
 C         -2.535799    1.145645    1.036401
 C         -1.697862    2.380480    0.947529
 C         -0.910026    2.488384    2.154569
 C         -1.083572    1.273501    2.925963
 C         -2.669198    0.308212   -0.314937
 C         -1.935629    0.856102   -1.491761
 C         -1.305344    2.100598   -1.485151
 C         -1.194973    2.876907   -0.242689
 C          0.096428    3.528555   -0.269248
 C          0.847832    3.669457    0.908163
 C          0.324550    3.138244    2.150162
 C          1.437745    2.601244    2.904213
 C          1.270186    1.424193    3.650698
 C         -0.015661    0.757464    3.660658
 C          0.227627   -0.670071    3.663625
 C         -0.623143   -1.512987    2.930926
 C         -1.741867   -0.964684    2.195752
 C         -1.854906   -1.737466    0.949726
 C         -2.226036   -1.115202   -0.243159
 C         -0.062749   -2.591328    2.173890
 C         -0.830129   -2.736141    0.950777
 C         -1.343686   -0.218221   -2.205534
 C         -1.519040   -1.433966   -1.433733
 C          1.639464   -0.885733    3.660144
 C          2.290558    0.421599    3.646231
 C          2.629404    2.796951    2.136304
 C          2.262024    3.471030    0.893991
 C          0.762110    3.177473   -1.487900
 C         -0.109635    2.298149   -2.244283
 C          0.432140    1.274203   -3.072616
 C         -0.210499   -0.038533   -3.052820
 C         -0.561718   -2.489605   -1.496059
 C         -0.203477   -3.168710   -0.252011
 C          1.329457   -2.885755    2.215968
 C          2.214410   -1.995484    2.982190
 C          3.692957    1.855421    2.173542
 C          3.517012    0.621966    2.957391
 C          2.178627    3.055026   -1.555120
 C          2.957319    3.200745   -0.316375
 C          1.822329    1.341999   -3.348950
 C          2.693019    2.226033   -2.589740
 C          0.395636   -2.411769   -2.537742
 C          0.569926   -1.191169   -3.314476
 C          1.098249   -3.722850   -0.134282
 C          1.863633   -3.577283    1.094176
 C          4.188041    2.500465   -0.201039
 C          4.553347    1.825371    1.039863
 C          4.214541   -0.549615    2.548660
 C          3.565592   -1.856679    2.565204
 C          4.087560   -2.618761    1.473604
 C          3.251974   -3.479693    0.748387
 C          2.021515   -3.691815   -1.229958
 C          1.674611   -3.050781   -2.424522
 C          1.955092   -1.088196   -3.670386
 C          2.573645    0.166799   -3.680333
 C          3.977524    1.598833   -2.475861
 C          4.708531    1.729467   -1.287292
 C          5.132373   -0.522973    1.454394
 C          5.301734    0.654597    0.706513
 C          3.918108    0.316134   -3.149007
 C          5.410671    0.580525   -0.739044
 C          5.069054   -1.805256    0.775560
 C          3.365738   -3.548295   -0.694852
 C          2.653259   -2.237134   -3.122115
 C          4.299462   -2.759797   -1.363536
 C          3.937255   -2.090517   -2.602496
 C          4.581342   -0.786826   -2.616181
 C          5.170279   -1.870378   -0.610466
 C          5.344735   -0.649860   -1.385279
 C         -3.884495    0.920745    0.363915
 C         -4.546205    2.116735   -0.282188
 C         -4.897014    3.221069    0.507470
 H         -4.630403    3.233460    1.561294
 C         -5.577707    4.304590   -0.047497
 H         -5.836681    5.155103    0.577052
 C         -5.920545    4.297449   -1.402009
 H         -6.448328    5.142165   -1.835886
 C         -5.579577    3.200878   -2.194890
 H         -5.842441    3.185672   -3.248930
 C         -4.896677    2.116816   -1.638255
 H         -4.634929    1.267960   -2.263045
 C         -4.874248   -0.024306    1.058563
 H         -5.469348    0.580881    1.754735
 H         -4.333054   -0.753725    1.668731
 C         -5.802320   -0.766829    0.087716
 H         -6.363423   -0.052787   -0.523934
 H         -5.205429   -1.369096   -0.607234
 C         -6.782707   -1.676528    0.830731
 H         -6.251279   -2.410840    1.450672
 H         -7.408605   -1.101591    1.525668
 C         -7.702822   -2.439536   -0.101646
 O         -7.682173   -2.388676   -1.315252
 O         -8.568630   -3.203622    0.595888
 C         -9.493181   -3.980362   -0.188699
 H         -8.955216   -4.677781   -0.835686
 H        -10.104179   -4.522930    0.532493
 H        -10.116910   -3.326793   -0.803656
