       132
S0: Total Energy = -4165.82263690
 C          5.130247    1.212809   -0.066439
 C          4.206220    2.277026   -0.064832
 C          2.878448    1.857421   -0.054250
 C          2.763875    0.470231   -0.038919
 C          1.376864    0.072307   -0.013852
 C          0.602573    1.265368    0.010724
 C         -0.781078    1.198581    0.019764
 S          4.278668   -0.351568   -0.043064
 C          1.501684    2.523283   -0.007627
 H         -1.389954    2.097431    0.029802
 C         -5.130272   -1.212816    0.066297
 C         -4.206245   -2.277036    0.064750
 C         -2.878474   -1.857430    0.054230
 C         -2.763897   -0.470241    0.038879
 C         -1.376884   -0.072322    0.013863
 C         -0.602593   -1.265385   -0.010683
 C          0.781058   -1.198596   -0.019745
 S         -4.278690    0.351559    0.042935
 C         -1.501713   -2.523298    0.007708
 H          1.389940   -2.097441   -0.029809
 C          6.523067    1.479293   -0.084984
 C          7.657247    0.690578   -0.088098
 C          7.676467   -0.790195   -0.060895
 O          6.707745   -1.545746   -0.046157
 C          9.093820   -1.199990   -0.052821
 C          9.603958   -2.470945   -0.024389
 C         11.013354   -2.651789   -0.018715
 C         11.608888   -3.938931    0.010981
 C         12.980189   -4.078934    0.016257
 C         13.816658   -2.936529   -0.007955
 C         13.269848   -1.671954   -0.037037
 C         11.861091   -1.489856   -0.043388
 C         11.291831   -0.185164   -0.073546
 C          9.918815   -0.036035   -0.078430
 C          9.045911    1.162245   -0.107809
 C          9.506277    2.471177   -0.152396
 C         10.891063    2.818504   -0.165584
 N         12.006399    3.157021   -0.177817
 C          8.668784    3.626324   -0.195470
 N          8.030585    4.601502   -0.233388
 H          6.694070    2.549962   -0.097074
 H          8.937349   -3.328996   -0.005955
 H         10.963875   -4.813343    0.029699
 H         13.425397   -5.069383    0.039200
 H         14.895534   -3.061524   -0.003434
 H         13.910834   -0.794622   -0.055601
 H         11.966813    0.660597   -0.091031
 C         -6.523092   -1.479299    0.084786
 C         -7.657269   -0.690579    0.087858
 C         -7.676474    0.790195    0.060694
 O         -6.707745    1.545736    0.045951
 C         -9.093823    1.200004    0.052667
 C         -9.603948    2.470966    0.024276
 C        -11.013342    2.651825    0.018638
 C        -11.608863    3.938974   -0.011016
 C        -12.980162    4.078992   -0.016254
 C        -13.816643    2.936596    0.007954
 C        -13.269846    1.672014    0.036995
 C        -11.861091    1.489901    0.043305
 C        -11.291844    0.185202    0.073419
 C         -9.918830    0.036058    0.078262
 C         -9.045937   -1.162233    0.107571
 C         -9.506316   -2.471162    0.152144
 C        -10.891104   -2.818475    0.165458
 N        -12.006445   -3.156976    0.177795
 C         -8.668835   -3.626323    0.195112
 N         -8.030633   -4.601503    0.232927
 H         -6.694098   -2.549966    0.096922
 H         -8.937330    3.329010    0.005842
 H        -10.963841    4.813380   -0.029731
 H        -13.425360    5.069446   -0.039165
 H        -14.895518    3.061602    0.003463
 H        -13.910841    0.794689    0.055555
 H        -11.966836   -0.660551    0.090908
 C          1.415658    3.365707    1.284202
 C          2.007605    4.638760    1.321189
 C          2.023044    5.389907    2.493167
 C          1.447780    4.904000    3.676698
 C          0.865875    3.633286    3.638106
 C          0.850045    2.874260    2.465092
 H          2.454956    5.052182    0.421818
 H          2.490652    6.372082    2.487898
 H          0.415540    3.222967    4.539153
 H          0.393568    1.890207    2.482890
 C          1.171033    3.346722   -1.270816
 C          0.128755    4.285619   -1.253318
 C         -0.235185    4.975574   -2.408244
 C          0.427060    4.760272   -3.624340
 C          1.462215    3.818428   -3.639543
 C          1.828129    3.122496   -2.486496
 H         -0.398996    4.490143   -0.326637
 H         -1.047830    5.697142   -2.361066
 H          1.995024    3.623081   -4.567505
 H          2.633635    2.396993   -2.542930
 C         -1.171124   -3.346629    1.270987
 C         -0.128659   -4.285383    1.253641
 C          0.235239   -4.975244    2.408589
 C         -0.427216   -4.760016    3.624632
 C         -1.462525   -3.818403    3.639672
 C         -1.828418   -3.122524    2.486538
 H          0.399220   -4.489841    0.327018
 H          1.048008   -5.696686    2.361529
 H         -1.995519   -3.623168    4.567545
 H         -2.634076   -2.397184    2.542871
 C         -1.415616   -3.365828   -1.284040
 C         -2.007406   -4.638959   -1.320924
 C         -2.022770   -5.390189   -2.492847
 C         -1.447589   -4.904290   -3.676426
 C         -0.865832   -3.633510   -3.637932
 C         -0.850077   -2.874397   -2.464970
 H         -2.454685   -5.052373   -0.421513
 H         -2.490247   -6.372426   -2.487498
 H         -0.415547   -3.223206   -4.539011
 H         -0.393707   -1.890295   -2.482839
 C          1.442496    5.735741    4.937602
 H          0.676627    6.521289    4.892645
 H          1.232626    5.122863    5.819885
 C          0.054342    5.537293   -4.864883
 H          0.312825    4.986361   -5.775070
 H         -1.018290    5.757218   -4.892303
 C         -0.054262   -5.536926    4.865174
 H          1.019776   -5.749465    4.896608
 H         -0.320291   -4.989610    5.775343
 C         -1.442303   -5.736110   -4.937279
 H         -1.231175   -5.123504   -5.819449
 H         -0.677323   -6.522486   -4.891735
 H         -0.576474   -6.502361    4.900723
 H         -2.405960   -6.234356   -5.091942
 H          2.405722    6.235011    5.091616
 H          0.583205    6.498945   -4.904593
 H          4.536962    3.309997   -0.070002
 H         -4.536986   -3.310007    0.069913
       132
T1: Total Energy = -4165.77625071
 C         -5.114721   -1.214706   -0.054096
 C         -4.173958   -2.289943   -0.057629
 C         -2.863117   -1.872997   -0.044814
 C         -2.737578   -0.464559   -0.024170
 C         -1.384907   -0.076031   -0.005999
 C         -0.586894   -1.280440    0.007586
 C          0.781497   -1.210704    0.007420
 S         -4.271179    0.358376   -0.024980
 C         -1.486423   -2.538346   -0.008514
 H          1.396592   -2.105118    0.008633
 C          5.114736    1.214729    0.053803
 C          4.173973    2.289966    0.057352
 C          2.863133    1.873019    0.044538
 C          2.737595    0.464581    0.023874
 C          1.384923    0.076054    0.005730
 C          0.586909    1.280464   -0.007844
 C         -0.781481    1.210727   -0.007676
 S          4.271196   -0.358352    0.024647
 C          1.486439    2.538369    0.008292
 H         -1.396578    2.105139   -0.008896
 C         -6.495396   -1.486331   -0.073844
 C         -7.641133   -0.690093   -0.075347
 C         -7.663696    0.793355   -0.044196
 O         -6.694839    1.548882   -0.022542
 C         -9.080411    1.201391   -0.043018
 C         -9.593302    2.470661   -0.015718
 C        -11.004326    2.648132   -0.018461
 C        -11.603023    3.933137    0.009353
 C        -12.975313    4.070258    0.006138
 C        -13.806970    2.925668   -0.025079
 C        -13.255495    1.661958   -0.052584
 C        -11.847340    1.483649   -0.050235
 C        -11.272816    0.178775   -0.078781
 C         -9.900847    0.033992   -0.075345
 C         -9.018886   -1.158618   -0.100883
 C         -9.475750   -2.477520   -0.146259
 C        -10.857802   -2.827413   -0.164626
 N        -11.972775   -3.169622   -0.181063
 C         -8.639887   -3.631645   -0.184454
 N         -8.007334   -4.611589   -0.218610
 H         -6.668818   -2.555617   -0.090057
 H         -8.929229    3.330606    0.008042
 H        -10.960283    4.809205    0.033401
 H        -13.423287    5.059494    0.027683
 H        -14.886401    3.046518   -0.027266
 H        -13.894230    0.783051   -0.076517
 H        -11.945574   -0.668615   -0.102002
 C          6.495410    1.486352    0.073641
 C          7.641142    0.690109    0.075206
 C          7.663696   -0.793337    0.043964
 O          6.694833   -1.548853    0.022171
 C          9.080407   -1.201389    0.043068
 C          9.593288   -2.470665    0.015867
 C         11.004310   -2.648152    0.018902
 C         11.602998   -3.933164   -0.008798
 C         12.975286   -4.070301   -0.005290
 C         13.806949   -2.925721    0.026119
 C         13.255483   -1.662005    0.053515
 C         11.847330   -1.483679    0.050859
 C         11.272816   -0.178799    0.079286
 C          9.900849   -0.033999    0.075563
 C          9.018897    1.158621    0.100917
 C          9.475769    2.477521    0.146283
 C         10.857823    2.827397    0.164869
 N         11.972797    3.169593    0.181480
 C          8.639916    3.631661    0.184219
 N          8.007373    4.611619    0.218165
 H          6.668834    2.555637    0.089922
 H          8.929210   -3.330602   -0.008041
 H         10.960253   -4.809225   -0.032990
 H         13.423253   -5.059542   -0.026748
 H         14.886378   -3.046583    0.028540
 H         13.894223   -0.783105    0.077595
 H         11.945579    0.668583    0.102655
 C         -1.397209   -3.379735    1.283489
 C         -1.965943   -4.663334    1.316806
 C         -1.978656   -5.411618    2.490547
 C         -1.425168   -4.911874    3.678748
 C         -0.868235   -3.629720    3.643708
 C         -0.855446   -2.873294    2.469392
 H         -2.397043   -5.086943    0.414463
 H         -2.427177   -6.402544    2.482991
 H         -0.436504   -3.208356    4.548642
 H         -0.419156   -1.880120    2.490068
 C         -1.163756   -3.355629   -1.276710
 C         -0.124226   -4.297770   -1.268414
 C          0.233057   -4.980857   -2.429177
 C         -0.433012   -4.754992   -3.641585
 C         -1.464771   -3.809451   -3.647237
 C         -1.823842   -3.119539   -2.488451
 H          0.406052   -4.510255   -0.345036
 H          1.043248   -5.705538   -2.389887
 H         -1.999820   -3.605781   -4.572002
 H         -2.627043   -2.390959   -2.538004
 C          1.163800    3.355577    1.276544
 C          0.124083    4.297553    1.268390
 C         -0.233178    4.980545    2.429185
 C          0.433082    4.754758    3.641535
 C          1.465005    3.809437    3.647038
 C          1.824068    3.119594    2.488177
 H         -0.406329    4.509961    0.345072
 H         -1.043499    5.705092    2.390006
 H          2.000218    3.605867    4.571726
 H          2.627418    2.391172    2.537628
 C          1.397195    3.379822   -1.283665
 C          1.966032    4.663381   -1.316967
 C          1.978717    5.411716   -2.490671
 C          1.425100    4.912066   -3.678858
 C          0.868061    3.629962   -3.643831
 C          0.855302    2.873480   -2.469546
 H          2.397231    5.086914   -0.414635
 H          2.427313    6.402608   -2.483103
 H          0.436219    3.208679   -4.548749
 H          0.418925    1.880344   -2.490234
 C         -1.417150   -5.740420    4.941506
 H         -0.635082   -6.510309    4.906275
 H         -1.229285   -5.121662    5.824577
 C         -0.066913   -5.524853   -4.888348
 H         -0.332088   -4.969741   -5.793975
 H          1.005784   -5.743178   -4.923475
 C          0.066794    5.524497    4.888318
 H         -1.006935    5.737277    4.926416
 H          0.337598    4.972065    5.793900
 C          1.417118    5.740661   -4.941585
 H          1.228055    5.122122   -5.824552
 H          0.635885    6.511370   -4.905821
 H          0.589670    6.489443    4.926043
 H          2.372133    6.257982   -5.086463
 H         -2.371716   -6.258728    5.085783
 H         -0.594783   -6.486958   -4.929103
 H         -4.507808   -3.321413   -0.067340
 H          4.507823    3.321436    0.067090
       132
S1: Total Energy = -4165.75673109
 C         -5.116174   -1.217933   -0.052399
 C         -4.184213   -2.287426   -0.053852
 C         -2.865207   -1.867477   -0.042197
 C         -2.744757   -0.466203   -0.024502
 C         -1.382507   -0.073949   -0.007388
 C         -0.590266   -1.276310    0.010792
 C          0.782792   -1.207966    0.013521
 S         -4.272928    0.354642   -0.026087
 C         -1.489825   -2.533049   -0.004607
 H          1.396017   -2.103553    0.019066
 C          5.116195    1.217901    0.053122
 C          4.184239    2.287400    0.054847
 C          2.865228    1.867460    0.043491
 C          2.744767    0.466187    0.025798
 C          1.382513    0.073941    0.008868
 C          0.590275    1.276304   -0.009253
 C         -0.782786    1.207957   -0.012016
 S          4.272931   -0.354669    0.027054
 C          1.489843    2.533040    0.006184
 H         -1.396017    2.103539   -0.017604
 C         -6.506048   -1.487831   -0.073349
 C         -7.644780   -0.692985   -0.076771
 C         -7.664277    0.790150   -0.043730
 O         -6.693254    1.543842   -0.020033
 C         -9.079317    1.200183   -0.043338
 C         -9.589401    2.470575   -0.014337
 C        -11.000316    2.651823   -0.017773
 C        -11.595726    3.937683    0.011919
 C        -12.968182    4.078750    0.008025
 C        -13.802687    2.936488   -0.025820
 C        -13.254326    1.671180   -0.055215
 C        -11.846614    1.488630   -0.052189
 C        -11.275811    0.182789   -0.082533
 C         -9.902782    0.033238   -0.078296
 C         -9.028488   -1.159770   -0.105119
 C         -9.486293   -2.478614   -0.154456
 C        -10.868197   -2.827385   -0.175208
 N        -11.983967   -3.168285   -0.193813
 C         -8.650244   -3.631696   -0.194991
 N         -8.014259   -4.609973   -0.231025
 H         -6.678920   -2.557439   -0.089202
 H         -8.923204    3.328829    0.011301
 H        -10.950834    4.812151    0.037944
 H        -13.413359    5.069233    0.031053
 H        -14.881840    3.060019   -0.028561
 H        -13.895393    0.794028   -0.081165
 H        -11.950175   -0.663287   -0.107580
 C          6.506080    1.487791    0.073487
 C          7.644809    0.692939    0.076365
 C          7.664284   -0.790199    0.043407
 O          6.693245   -1.543894    0.020473
 C          9.079323   -1.200231    0.042004
 C          9.589386   -2.470622    0.012651
 C         11.000304   -2.651868    0.014988
 C         11.595691   -3.937728   -0.015145
 C         12.968150   -4.078792   -0.012355
 C         13.802680   -2.936528    0.020779
 C         13.254341   -1.671220    0.050588
 C         11.846627   -1.488672    0.048701
 C         11.275845   -0.182832    0.079480
 C          9.902813   -0.033284    0.076322
 C          9.028535    1.159722    0.103819
 C          9.486369    2.478562    0.152986
 C         10.868286    2.827341    0.172726
 N         11.984067    3.168246    0.190518
 C          8.650340    3.631629    0.194371
 N          8.014369    4.609890    0.231077
 H          6.678966    2.557398    0.089225
 H          8.923172   -3.328879   -0.012452
 H         10.950779   -4.812198   -0.040632
 H         13.413310   -5.069276   -0.035716
 H         14.881835   -3.060058    0.022642
 H         13.895429   -0.794067    0.075995
 H         11.950227    0.663245    0.103977
 C         -1.403417   -3.371883    1.288674
 C         -1.963317   -4.659548    1.321360
 C         -1.978708   -5.404499    2.497084
 C         -1.436870   -4.897502    3.687729
 C         -0.888999   -3.611189    3.653235
 C         -0.874035   -2.857874    2.477297
 H         -2.385047   -5.088726    0.417277
 H         -2.420080   -6.398576    2.489370
 H         -0.466795   -3.184334    4.560031
 H         -0.446198   -1.860958    2.498640
 C         -1.164803   -3.348408   -1.273012
 C         -0.128984   -4.294619   -1.264275
 C          0.228384   -4.975857   -2.426005
 C         -0.433866   -4.743982   -3.639600
 C         -1.461702   -3.794007   -3.645623
 C         -1.820519   -3.105526   -2.486120
 H          0.397921   -4.511876   -0.340093
 H          1.035419   -5.703991   -2.386793
 H         -1.993286   -3.585605   -4.571275
 H         -2.619710   -2.372472   -2.535629
 C          1.165000    3.348194    1.274771
 C          0.129248    4.294528    1.266248
 C         -0.227975    4.975605    2.428078
 C          0.434347    4.743464    3.641623
 C          1.462104    3.793455    3.647417
 C          1.820793    3.105100    2.487759
 H         -0.397670    4.511989    0.342120
 H         -1.034941    5.703831    2.389033
 H          1.993763    3.584901    4.572986
 H          2.619949    2.372000    2.537110
 C          1.403239    3.372098   -1.286932
 C          1.962606    4.660006   -1.319296
 C          1.977814    5.405198   -2.494866
 C          1.436315    4.898212   -3.685676
 C          0.888960    3.611674   -3.651495
 C          0.874183    2.858114   -2.475707
 H          2.384046    5.089180   -0.415076
 H          2.418764    6.399460   -2.486902
 H          0.467013    3.184835   -4.558417
 H          0.446749    1.861031   -2.497294
 C         -1.431688   -5.722506    4.952608
 H         -0.644056   -6.486997    4.924347
 H         -1.253943   -5.100252    5.835274
 C         -0.067800   -5.512115   -4.887252
 H         -0.325802   -4.952490   -5.792141
 H          1.003498   -5.737572   -4.918674
 C          0.068186    5.511399    4.889369
 H         -1.004363    5.730412    4.924328
 H          0.332830    4.954806    5.794187
 C          1.431001    5.723457   -4.950397
 H          1.252360    5.101488   -5.833081
 H          0.643929    6.488499   -4.921557
 H          0.596681    6.473093    4.931480
 H          2.383151    6.247441   -5.089867
 H         -2.383545   -6.247122    5.091654
 H         -0.602064   -6.470460   -4.932905
 H         -4.515370   -3.319766   -0.061815
 H          4.515406    3.319738    0.062714
