       126
S0: Total Energy = -3937.16912807
 C          5.210247    0.812457   -0.067342
 C          4.372044    1.943868   -0.066657
 C          3.014803    1.627682   -0.053831
 C          2.793074    0.254530   -0.036312
 C          1.378845   -0.035243   -0.011412
 C          0.699579    1.214109    0.010475
 C         -0.685261    1.255491    0.016875
 S          4.240980   -0.680929   -0.040637
 C          1.693777    2.398374   -0.007486
 H         -1.221403    2.199595    0.023965
 C         -5.210150   -0.812408    0.067614
 C         -4.371955   -1.943818    0.067010
 C         -3.014703   -1.627645    0.054180
 C         -2.792969   -0.254502    0.036622
 C         -1.378737    0.035276    0.011753
 C         -0.699470   -1.214076   -0.010111
 C          0.685368   -1.255461   -0.016525
 S         -4.240870    0.680965    0.040809
 C         -1.693670   -2.398337    0.007873
 H          1.221506   -2.199569   -0.023625
 C          6.621402    0.968151   -0.087202
 C          7.687336    0.092809   -0.090155
 C          7.595684   -1.385457   -0.063215
 O          6.576367   -2.069073   -0.048068
 C          8.982092   -1.900625   -0.056234
 C          9.398435   -3.222810   -0.031909
 C         10.771714   -3.505853   -0.030717
 C         11.672817   -2.425759   -0.061857
 C         11.254171   -1.093762   -0.087339
 C          9.881288   -0.819216   -0.083703
 C          9.111061    0.448200   -0.110776
 C          9.679108    1.711973   -0.152426
 C         11.088906    1.942144   -0.164505
 N         12.227968    2.188279   -0.175547
 C          8.940572    2.933772   -0.192068
 N          8.386724    3.959018   -0.227331
 H          6.876695    2.021988   -0.100813
 H          8.660271   -4.020062   -0.015448
 H         12.739657   -2.633950   -0.068178
 H         11.999202   -0.310280   -0.112266
 C         -6.621322   -0.968109    0.087566
 C         -7.687288   -0.092818    0.090322
 C         -7.595775    1.385455    0.062541
 O         -6.576536    2.069179    0.047239
 C         -8.982221    1.900473    0.054773
 C         -9.398725    3.222718    0.029178
 C        -10.771865    3.505622    0.027286
 C        -11.673021    2.425378    0.058928
 C        -11.254305    1.093572    0.085661
 C         -9.881281    0.819119    0.082772
 C         -9.111012   -0.448247    0.111027
 C         -9.679076   -1.711967    0.153768
 C        -11.088887   -1.942091    0.165692
 N        -12.227977   -2.188098    0.176647
 C         -8.940578   -2.933747    0.194819
 N         -8.386837   -3.959007    0.231278
 H         -6.876577   -2.021951    0.101399
 H         -8.660658    4.020025    0.012198
 H        -12.739909    2.633470    0.064571
 H        -11.999231    0.309994    0.110806
 C          1.673267    3.244809    1.284427
 C          2.367966    4.464821    1.323374
 C          2.441615    5.212578    2.495298
 C          1.824607    4.776062    3.677060
 C          1.139898    3.557753    3.636595
 C          1.065132    2.802285    2.463518
 H          2.850779    4.839597    0.425379
 H          2.988622    6.152864    2.491461
 H          0.654326    3.186265    4.536196
 H          0.528866    1.859335    2.479849
 C          1.428714    3.245627   -1.270305
 C          0.467317    4.267055   -1.251785
 C          0.159075    4.983657   -2.406875
 C          0.798791    4.713551   -3.623958
 C          1.752792    3.689462   -3.640252
 C          2.062459    2.966906   -2.487247
 H         -0.040115    4.515150   -0.324364
 H         -0.591429    5.769615   -2.358919
 H          2.265613    3.449961   -4.569149
 H          2.805387    2.177464   -2.544272
 C         -1.428601   -3.245545    1.270717
 C         -0.467223   -4.266989    1.252249
 C         -0.158985   -4.983526    2.407382
 C         -0.798682   -4.713334    3.624455
 C         -1.752663   -3.689224    3.640698
 C         -2.062328   -2.966737    2.487650
 H          0.040206   -4.515136    0.324841
 H          0.591501   -5.769503    2.359470
 H         -2.265468   -3.449650    4.569585
 H         -2.805247   -2.177284    2.544636
 C         -1.673153   -3.244788   -1.284028
 C         -2.367742   -4.464866   -1.322939
 C         -2.441375   -5.212631   -2.494857
 C         -1.824461   -4.776064   -3.676651
 C         -1.139861   -3.557693   -3.636221
 C         -1.065104   -2.802220   -2.463147
 H         -2.850484   -4.839676   -0.424920
 H         -2.988292   -6.152970   -2.490996
 H         -0.654363   -3.186160   -4.535843
 H         -0.528910   -1.859229   -2.479507
 C          1.883813    5.605778    4.937947
 H          1.181970    6.449018    4.892508
 H          1.625859    5.011360    5.820138
 C          0.489265    5.517327   -4.864849
 H          0.684174    4.940048   -5.774608
 H         -0.557529    5.838987   -4.882718
 C         -0.489158   -5.517043    4.865390
 H          0.557577   -5.838897    4.883167
 H         -0.683852   -4.939637    5.775116
 C         -1.883617   -5.605805   -4.937524
 H         -1.626229   -5.011252   -5.819790
 H         -1.181318   -6.448677   -4.892300
 H          2.883123    6.027943    5.092620
 H          1.107668    6.423479   -4.915282
 H         -1.107728   -6.423072    4.915988
 H         -2.882753   -6.028488   -5.091899
 H         -4.780962   -2.948364    0.074954
 H          4.781046    2.948416   -0.074508
 C        -11.275263    4.926241   -0.029992
 H        -10.528657    5.630107    0.349745
 H        -11.504760    5.215985   -1.063920
 H        -12.194272    5.048799    0.552308
 C         11.274235   -4.926807    0.025827
 H         11.470212   -5.228724    1.063201
 H         10.540358   -5.626515   -0.385394
 H         12.211249   -5.042357   -0.528298
       126
T1: Total Energy = -3937.12116340
 C         -5.194164   -0.815661   -0.059047
 C         -4.339004   -1.960069   -0.064557
 C         -3.000073   -1.645562   -0.046593
 C         -2.765256   -0.250634   -0.020859
 C         -1.387565    0.032000   -0.001566
 C         -0.684508   -1.231163    0.007119
 C          0.684646   -1.268194    0.002807
 S         -4.231944    0.687810   -0.022788
 C         -1.678923   -2.415555   -0.009485
 H          1.227492   -2.208245   -0.001244
 C          5.194176    0.815682    0.059681
 C          4.339015    1.960079    0.065534
 C          3.000078    1.645557    0.048170
 C          2.765261    0.250628    0.022590
 C          1.387562   -0.032011    0.003601
 C          0.684504    1.231152   -0.005034
 C         -0.684650    1.268183   -0.000704
 S          4.231954   -0.687803    0.024191
 C          1.678917    2.415545    0.011452
 H         -1.227499    2.208233    0.003295
 C         -6.592302   -0.977276   -0.080936
 C         -7.670094   -0.093098   -0.081896
 C         -7.580722    1.388169   -0.052516
 O         -6.561034    2.071148   -0.031153
 C         -8.966545    1.903040   -0.053351
 C         -9.385566    3.222962   -0.032700
 C        -10.761457    3.502943   -0.040626
 C        -11.656558    2.420877   -0.076096
 C        -11.232949    1.087508   -0.097799
 C         -9.861505    0.817538   -0.085647
 C         -9.081989   -0.447072   -0.107290
 C         -9.648595   -1.719938   -0.147455
 C        -11.056161   -1.951306   -0.163561
 N        -12.195738   -2.198629   -0.177743
 C         -8.912060   -2.940956   -0.180276
 N         -8.363443   -3.970088   -0.210053
 H         -6.850413   -2.029468   -0.099760
 H         -8.649776    4.022525   -0.012502
 H        -12.724176    2.624785   -0.089062
 H        -11.975988    0.302251   -0.126811
 C          6.592330    0.977302    0.080569
 C          7.670101    0.093116    0.080759
 C          7.580684   -1.388153    0.051449
 O          6.560964   -2.071115    0.031137
 C          8.966504   -1.903029    0.050910
 C          9.385512   -3.222994    0.029794
 C         10.761354   -3.502980    0.036303
 C         11.656538   -2.420886    0.070994
 C         11.232978   -1.087561    0.093188
 C          9.861486   -0.817568    0.082374
 C          9.082025    0.447064    0.104892
 C          9.648682    1.719913    0.144725
 C         11.056265    1.951289    0.159365
 N         12.195852    2.198627    0.172388
 C          8.912175    2.940922    0.178548
 N          8.363562    3.970031    0.209155
 H          6.850462    2.029495    0.099075
 H          8.649702   -4.022546    0.010310
 H         12.724170   -2.624804    0.082949
 H         11.976038   -0.302302    0.121557
 C         -1.656391   -3.261436    1.282538
 C         -2.337242   -4.489299    1.318580
 C         -2.408795   -5.235562    2.491353
 C         -1.804576   -4.789287    3.676233
 C         -1.135281   -3.562242    3.638556
 C         -1.063001   -2.807793    2.464940
 H         -2.810743   -4.870907    0.418693
 H         -2.944226   -6.182373    2.485877
 H         -0.661080   -3.182865    4.540815
 H         -0.539210   -1.857852    2.483577
 C         -1.420057   -3.256613   -1.276646
 C         -0.463734   -4.283039   -1.265009
 C         -0.159971   -4.992541   -2.425259
 C         -0.798993   -4.710045   -3.640307
 C         -1.747282   -3.680791   -3.649264
 C         -2.052191   -2.964355   -2.491106
 H          0.042753   -4.540266   -0.339630
 H          0.586195   -5.782878   -2.383437
 H         -2.258836   -3.431682   -4.576204
 H         -2.791003   -2.170663   -2.543006
 C          1.420342    3.256461    1.278772
 C          0.463972    4.282848    1.267473
 C          0.160475    4.992232    2.427862
 C          0.799818    4.709653    3.642723
 C          1.748155    3.680441    3.651344
 C          2.052802    2.964123    2.493042
 H         -0.042756    4.540144    0.342244
 H         -0.585735    5.782542    2.386302
 H          2.259958    3.431271    4.578130
 H          2.791667    2.170464    2.544683
 C          1.656066    3.261570   -1.280464
 C          2.336713    4.489545   -1.316477
 C          2.407977    5.235939   -2.489186
 C          1.803655    4.789692   -3.674021
 C          1.134555    3.562537   -3.636372
 C          1.062567    2.807957   -2.462824
 H          2.810281    4.871137   -0.416618
 H          2.943259    6.182835   -2.483690
 H          0.660277    3.183181   -4.538599
 H          0.538919    1.857937   -2.481478
 C         -1.862041   -5.617390    4.938031
 H         -1.151697   -6.453656    4.896880
 H         -1.614300   -5.019207    5.820523
 C         -0.493129   -5.506471   -4.886644
 H         -0.710325   -4.931290   -5.792525
 H          0.558576   -5.810576   -4.919299
 C          0.494235    5.505952    4.889209
 H         -0.557500    5.809922    4.922206
 H          0.711779    4.930736    5.794983
 C          1.860790    5.617937   -4.935740
 H          1.613136    5.019776   -5.818273
 H          1.150220    6.454005   -4.894447
 H         -2.857902   -6.049150    5.088044
 H         -1.096713   -6.422881   -4.929339
 H          1.097714    6.422437    4.931783
 H          2.856520    6.049983   -5.085793
 H          4.751250    2.962754    0.080197
 H         -4.751245   -2.962736   -0.079573
 C         11.263471   -4.924507   -0.014982
 H         10.602764   -5.600619    0.537363
 H         11.305509   -5.286346   -1.050866
 H         12.271291   -5.009007    0.402797
 C        -11.263339    4.924582    0.009718
 H        -11.295204    5.290773    1.044420
 H        -10.608049    5.598491   -0.551785
 H        -12.275088    5.007266   -0.398736
       126
S1: Total Energy = -3937.10067957
 C         -5.196392   -0.818587   -0.058505
 C         -4.350163   -1.956163   -0.061651
 C         -3.002223   -1.639099   -0.044698
 C         -2.773461   -0.251627   -0.022486
 C         -1.384763    0.034122   -0.004718
 C         -0.688130   -1.226256    0.009259
 C          0.686104   -1.265374    0.007499
 S         -4.234506    0.684124   -0.025204
 C         -1.682567   -2.409302   -0.005494
 H          1.226558   -2.206718    0.008436
 C          5.196307    0.818348    0.058507
 C          4.350060    1.955911    0.061583
 C          3.002129    1.638842    0.044472
 C          2.773379    0.251364    0.022221
 C          1.384684   -0.034390    0.004339
 C          0.688049    1.225986   -0.009639
 C         -0.686186    1.265103   -0.007896
 S          4.234435   -0.684372    0.025097
 C          1.682475    2.409038    0.005159
 H         -1.226640    2.206446   -0.008829
 C         -6.604067   -0.977763   -0.081487
 C         -7.675072   -0.095918   -0.083655
 C         -7.580886    1.385669   -0.050981
 O         -6.558156    2.064676   -0.028005
 C         -8.964283    1.903984   -0.050455
 C         -9.379333    3.224591   -0.026296
 C        -10.754956    3.509194   -0.033284
 C        -11.653127    2.429281   -0.071397
 C        -11.234312    1.094623   -0.096750
 C         -9.862832    0.818770   -0.085519
 C         -9.091775   -0.445920   -0.111066
 C         -9.660934   -1.719871   -0.157001
 C        -11.067943   -1.948768   -0.172394
 N        -12.209017   -2.192159   -0.185914
 C         -8.925230   -2.939719   -0.197599
 N         -8.373010   -3.967571   -0.233840
 H         -6.861449   -2.030401   -0.099880
 H         -8.641010    4.021855   -0.004097
 H        -12.720141    2.636838   -0.083449
 H        -11.979545    0.311468   -0.127659
 C          6.603975    0.977598    0.081728
 C          7.675095    0.095898    0.083995
 C          7.581228   -1.385718    0.051149
 O          6.558653   -2.064940    0.027825
 C          8.964734   -1.903729    0.050734
 C          9.380094   -3.224308    0.026515
 C         10.755692   -3.508615    0.033719
 C         11.653685   -2.428462    0.072190
 C         11.234612   -1.093964    0.097589
 C          9.863019   -0.818377    0.086098
 C          9.091712    0.446169    0.111685
 C          9.660532    1.720259    0.157835
 C         11.067469    1.949594    0.173397
 N         12.208446    2.193431    0.187045
 C          8.924437    2.939871    0.198460
 N          8.371786    3.967490    0.234739
 H          6.861266    2.030262    0.100236
 H          8.641952   -4.021723    0.004143
 H         12.720744   -2.635806    0.084520
 H         11.979659   -0.310647    0.128816
 C         -1.663160   -3.251239    1.288564
 C         -2.339834   -4.481549    1.325729
 C         -2.414335   -5.223403    2.500992
 C         -1.817270   -4.770415    3.687092
 C         -1.152234   -3.540817    3.648208
 C         -1.077527   -2.790458    2.472471
 H         -2.807517   -4.868283    0.425038
 H         -2.946421   -6.172043    2.496709
 H         -0.683966   -3.156403    4.551375
 H         -0.558361   -1.837892    2.490483
 C         -1.421203   -3.249898   -1.272019
 C         -0.471278   -4.282255   -1.258183
 C         -0.167405   -4.991136   -2.418652
 C         -0.799921   -4.702095   -3.635854
 C         -1.741541   -3.666636   -3.646882
 C         -2.046147   -2.950358   -2.488740
 H          0.029705   -4.544582   -0.331255
 H          0.573444   -5.786337   -2.375614
 H         -2.247491   -3.412427   -4.575442
 H         -2.778588   -2.150793   -2.541920
 C          1.421019    3.249675    1.271639
 C          0.471200    4.282128    1.257656
 C          0.167231    4.991049    2.418076
 C          0.799541    4.701955    3.635371
 C          1.741056    3.666401    3.646544
 C          2.045758    2.950083    2.488452
 H         -0.029623    4.544497    0.330654
 H         -0.573532    5.786325    2.374924
 H          2.246846    3.412149    4.575179
 H          2.778108    2.150442    2.541746
 C          1.663157    3.250934   -1.288927
 C          2.339847    4.481233   -1.326099
 C          2.414407    5.223050   -2.501383
 C          1.817388    4.770032   -3.687494
 C          1.152335    3.540442   -3.648602
 C          1.077566    2.790123   -2.472846
 H          2.807494    4.867989   -0.425399
 H          2.946502    6.171684   -2.497107
 H          0.684103    3.156005   -4.551778
 H          0.558386    1.837564   -2.490848
 C         -1.877882   -5.593832    4.951590
 H         -1.162763   -6.426351    4.917555
 H         -1.638495   -4.991068    5.833229
 C         -0.493920   -5.498099   -4.882230
 H         -0.708176   -4.921681   -5.787969
 H          0.556991   -5.805066   -4.913191
 C          0.493437    5.497998    4.881697
 H         -0.557464    5.805016    4.912532
 H          0.707560    4.921586    5.787472
 C          1.878050    5.593413   -4.952013
 H          1.638912    4.990572   -5.833668
 H          1.162769    6.425798   -4.918124
 H         -2.872244   -6.030444    5.097135
 H         -1.099928   -6.412826   -4.926358
 H          1.099484    6.412696    4.925876
 H          2.872353    6.030204   -5.097417
 H          4.759604    2.959674    0.074845
 H         -4.759718   -2.959922   -0.074832
 C         11.253232   -4.931309   -0.020140
 H         10.607124   -5.601503    0.556586
 H         11.264418   -5.302883   -1.053518
 H         12.272304   -5.014784    0.369500
 C        -11.251712    4.932181    0.019924
 H        -11.244915    5.310612    1.050818
 H        -10.615535    5.598571   -0.572180
 H        -12.277187    5.013194   -0.352926
