        90
S0: Total Energy = -2818.29557293
 O          0.813563   -6.720632   -2.941897
 O         -2.288849   -3.371077   -3.088643
 C          0.499951   -5.572999   -2.647686
 C          1.411269   -4.673481   -1.900876
 C          2.668494   -5.128835   -1.539517
 H          2.958747   -6.140300   -1.801155
 C          3.551520   -4.287487   -0.857794
 H          4.527366   -4.678613   -0.597015
 C          3.203048   -2.982137   -0.502447
 C          1.452442   -1.188617   -0.435058
 C          1.890301   -2.504540   -0.817159
 C          1.017316   -3.359825   -1.554129
 C         -0.253575   -2.885521   -1.955230
 C         -1.183619   -3.750963   -2.718574
 C          0.220991   -0.716782   -0.940543
 C         -0.614806   -1.586237   -1.676922
 H         -1.565154   -1.223102   -2.052341
 O          4.547278    2.946338    3.571072
 O          7.993935    0.097492    2.636351
 C          4.935023    1.938322    2.990466
 C          4.043119    1.103559    2.153857
 C          2.710269    1.447161    2.018331
 H          2.333551    2.315998    2.546940
 C          1.861695    0.694948    1.197241
 H          0.829874    1.006145    1.124146
 C          2.311439   -0.424121    0.490475
 C          4.146835   -2.090135    0.179122
 C          3.658748   -0.859538    0.713340
 C          4.532005   -0.060002    1.512842
 C          5.886482   -0.436111    1.683332
 C          6.812060    0.390495    2.494126
 C          5.493277   -2.416169    0.356015
 H          5.897718   -3.323029   -0.077161
 C          6.357255   -1.594650    1.087221
 H          7.400165   -1.863907    1.212802
 C          7.142391    2.378910    3.923402
 H          8.138607    1.944426    3.905827
 N          6.269332    1.533145    3.100598
 C         -1.687458   -5.898841   -3.751800
 H         -2.618635   -6.001198   -3.190050
 N         -0.750892   -5.048005   -3.007359
 C         -0.220985    0.716693   -0.940571
 C          0.614843    1.586118   -1.676946
 C         -1.452450    1.188554   -0.435136
 C          0.253634    2.885398   -1.955301
 H          1.565201    1.222967   -2.052323
 C         -1.890280    2.504472   -0.817295
 C         -2.311486    0.424099    0.490397
 C          1.183722    3.750811   -2.718634
 C         -1.017259    3.359729   -1.554257
 C         -3.203027    2.982104   -0.502630
 C         -3.658787    0.859561    0.713234
 C         -1.861783   -0.694960    1.197207
 O          2.288987    3.370925   -3.088597
 N          0.750997    5.047813   -3.007538
 C         -1.411184    4.673385   -1.901054
 C         -3.551467    4.287450   -0.858021
 C         -4.146839    2.090146    0.178962
 C         -4.532069    0.060086    1.512772
 H         -0.829969   -1.006185    1.124144
 C         -2.710387   -1.447128    2.018309
 C         -0.499826    5.572877   -2.647835
 C          1.687639    5.898582   -3.751957
 C         -2.668411    5.128767   -1.539744
 H         -4.527313    4.678598   -0.597273
 C         -5.493276    2.416222    0.355832
 C         -5.886527    0.436247    1.683254
 C         -4.043223   -1.103477    2.153824
 H         -2.333694   -2.315959    2.546947
 O         -0.813396    6.720523   -2.942032
 H          1.217417    6.868925   -3.889577
 H         -2.958642    6.140231   -1.801410
 C         -6.357274    1.594765    1.087081
 H         -5.897690    3.323070   -0.077394
 C         -6.812134   -0.390277    2.494106
 C         -4.935159   -1.938173    2.990452
 H         -7.400177    1.864053    1.212657
 O         -7.993994   -0.097180    2.636306
 N         -6.269459   -1.532914    3.100609
 O         -4.547506   -2.946259    3.570994
 C         -7.142512   -2.378656    3.923450
 H         -6.761445   -2.418827    4.946519
 H         -8.138601   -1.943861    3.906318
 H         -7.161542   -3.393151    3.518990
 H          2.618660    6.001256   -3.190003
 H          1.912683    5.443157   -4.719119
 H          6.761691    2.418635    4.946634
 H          7.160933    3.393526    3.519247
 H         -1.217355   -6.869300   -3.889010
 H         -1.912171   -5.443665   -4.719155
        90
T1: Total Energy = -2818.25027307
 O         -1.052526    6.647879   -3.038415
 O          2.258315    3.496191   -2.887359
 C         -0.682408    5.530788   -2.684523
 C         -1.574489    4.605100   -1.958905
 C         -2.890013    5.012342   -1.670538
 H         -3.210268    5.997694   -1.989075
 C         -3.742339    4.171211   -0.994186
 H         -4.743682    4.519174   -0.775179
 C         -3.329231    2.876068   -0.553771
 C         -1.509883    1.168843   -0.398680
 C         -1.992998    2.448850   -0.830518
 C         -1.128274    3.331556   -1.553399
 C          0.192472    2.925028   -1.862610
 C          1.108148    3.818050   -2.596022
 C         -0.201798    0.736801   -0.866818
 C          0.617833    1.637715   -1.540320
 H          1.597316    1.326284   -1.885471
 O         -4.463582   -3.009585    3.603731
 O         -7.978644   -0.225382    2.699882
 C         -4.881205   -2.008557    3.024257
 C         -4.020462   -1.162907    2.179893
 C         -2.660210   -1.486106    2.039802
 H         -2.270028   -2.337156    2.586507
 C         -1.842209   -0.730973    1.230700
 H         -0.796100   -0.993467    1.174623
 C         -2.329289    0.402278    0.498192
 C         -4.211870    2.002463    0.162310
 C         -3.686667    0.802539    0.723429
 C         -4.536569   -0.012922    1.539977
 C         -5.894805    0.332994    1.721742
 C         -6.791049   -0.502461    2.544373
 C         -5.594352    2.307281    0.364684
 H         -6.023324    3.192289   -0.087498
 C         -6.411294    1.490818    1.113223
 H         -7.459632    1.727105    1.255445
 C         -7.069286   -2.492343    3.981385
 H         -8.076573   -2.083944    3.964155
 N         -6.222082   -1.631942    3.147474
 C          1.541748    5.960552   -3.671506
 H          2.430465    6.136501   -3.061305
 N          0.616178    5.076079   -2.953906
 C          0.242041   -0.684582   -0.892848
 C         -0.611280   -1.564329   -1.600319
 C          1.499735   -1.147971   -0.434492
 C         -0.227360   -2.844578   -1.928568
 H         -1.585098   -1.218526   -1.928462
 C          1.953494   -2.439806   -0.868719
 C          2.355988   -0.402105    0.503240
 C         -1.166248   -3.714578   -2.676247
 C          1.073788   -3.294719   -1.598599
 C          3.287462   -2.893200   -0.611572
 C          3.718695   -0.810515    0.677032
 C          1.889649    0.666815    1.277327
 O         -2.297606   -3.356930   -2.983924
 N         -0.709961   -4.988536   -3.024882
 C          1.487947   -4.584232   -2.001736
 C          3.657249   -4.175762   -1.026588
 C          4.225465   -2.002659    0.077542
 C          4.588537   -0.022939    1.491639
 H          0.847141    0.949877    1.241774
 C          2.735700    1.403149    2.112944
 C          0.570675   -5.486209   -2.738689
 C         -1.655019   -5.844133   -3.753257
 C          2.771639   -5.015906   -1.704930
 H          4.651300   -4.549581   -0.813458
 C          5.585487   -2.297635    0.206960
 C          5.956599   -0.367191    1.612086
 C          4.082646    1.094429    2.197913
 H          2.347760    2.232720    2.693831
 O          0.904539   -6.613364   -3.084719
 H         -1.165490   -6.796678   -3.939305
 H          3.077491   -6.009744   -2.012295
 C          6.444252   -1.484362    0.952397
 H          6.002892   -3.173485   -0.274983
 C          6.878884    0.448770    2.437317
 C          4.971522    1.915468    3.050785
 H          7.497108   -1.728430    1.040719
 O          8.071483    0.183224    2.538136
 N          6.319928    1.547166    3.107044
 O          4.569638    2.882552    3.688628
 C          7.189779    2.381912    3.944535
 H          6.848468    2.349134    4.981959
 H          8.201127    1.991291    3.866123
 H          7.151107    3.416874    3.597877
 H         -2.557401   -5.988301   -3.154947
 H         -1.934287   -5.368384   -4.696234
 H         -6.684064   -2.513221    5.003598
 H         -7.062248   -3.510578    3.586226
 H          1.023123    6.895633   -3.867394
 H          1.850563    5.492029   -4.608940
        90
S1: Total Energy = -2818.22551473
 O         -1.024432    6.534805   -3.198706
 O          2.279748    3.390431   -2.957071
 C         -0.646470    5.433106   -2.825239
 C         -1.554716    4.515759   -2.080430
 C         -2.859696    4.930428   -1.817888
 H         -3.181597    5.906487   -2.161311
 C         -3.724357    4.095380   -1.125198
 H         -4.728809    4.450228   -0.933844
 C         -3.320374    2.826930   -0.658060
 C         -1.504809    1.113863   -0.456582
 C         -1.982524    2.389428   -0.908754
 C         -1.116895    3.252097   -1.643009
 C          0.206485    2.838010   -1.936006
 C          1.136117    3.726273   -2.687001
 C         -0.213999    0.670961   -0.899554
 C          0.629340    1.576917   -1.577728
 H          1.620078    1.255625   -1.876841
 O         -4.502031   -2.916913    3.691862
 O         -8.005374   -0.170682    2.659517
 C         -4.922981   -1.945758    3.078317
 C         -4.047407   -1.128146    2.199792
 C         -2.703741   -1.462547    2.072082
 H         -2.312848   -2.301606    2.636037
 C         -1.878203   -0.741775    1.216184
 H         -0.846227   -1.047257    1.133959
 C         -2.348925    0.358512    0.462008
 C         -4.223325    1.961613    0.078064
 C         -3.703004    0.775817    0.672540
 C         -4.555983   -0.003996    1.511648
 C         -5.913946    0.350137    1.677259
 C         -6.823721   -0.462016    2.531892
 C         -5.587129    2.273178    0.260709
 H         -6.014126    3.149609   -0.209363
 C         -6.421491    1.476187    1.035839
 H         -7.467992    1.727086    1.163998
 C         -7.117486   -2.395845    4.041471
 H         -8.123741   -1.986547    4.006383
 N         -6.262971   -1.565421    3.180385
 C          1.584615    5.846452   -3.804353
 H          2.467609    6.030715   -3.189245
 N          0.650341    4.976388   -3.074866
 C          0.239170   -0.744884   -0.893292
 C         -0.568185   -1.631365   -1.610080
 C          1.517867   -1.173397   -0.397925
 C         -0.146503   -2.920095   -1.919196
 H         -1.534578   -1.312998   -1.986253
 C          2.010075   -2.453015   -0.816225
 C          2.312099   -0.402472    0.537239
 C         -1.038650   -3.805557   -2.673998
 C          1.160966   -3.336066   -1.562779
 C          3.346545   -2.870856   -0.511186
 C          3.680637   -0.769997    0.756135
 C          1.791091    0.687121    1.279048
 O         -2.182362   -3.487476   -3.012183
 N         -0.537214   -5.068608   -3.007344
 C          1.618975   -4.616365   -1.945210
 C          3.760351   -4.160406   -0.914609
 C          4.228682   -1.962615    0.194731
 C          4.510969    0.066032    1.572946
 H          0.732188    0.904606    1.250384
 C          2.595489    1.473043    2.089766
 C          0.752704   -5.536682   -2.691601
 C         -1.440684   -5.950547   -3.751031
 C          2.918562   -5.013555   -1.606638
 H          4.754524   -4.509283   -0.662528
 C          5.604619   -2.228679    0.382125
 C          5.880043   -0.247425    1.745064
 C          3.958578    1.200128    2.220014
 H          2.178727    2.306672    2.644774
 O          1.112923   -6.664477   -3.033001
 H         -0.919684   -6.889139   -3.923179
 H          3.250210   -6.003677   -1.899933
 C          6.411217   -1.386204    1.129099
 H          6.053004   -3.103548   -0.073402
 C          6.752894    0.604944    2.562816
 C          4.795205    2.062545    3.062028
 H          7.466413   -1.600523    1.259821
 O          7.952910    0.373874    2.721906
 N          6.148661    1.719512    3.172429
 O          4.363172    3.053194    3.656774
 C          6.975109    2.598678    4.003785
 H          6.608084    2.594071    5.033538
 H          7.996575    2.228218    3.964819
 H          6.922986    3.622271    3.625243
 H         -2.352980   -6.119468   -3.173701
 H         -1.716181   -5.487156   -4.701785
 H         -6.734609   -2.379841    5.064101
 H         -7.110685   -3.425709    3.679010
 H          1.070542    6.779006   -4.022024
 H          1.895758    5.357363   -4.729867
