       106
S0: Total Energy = -3475.07044499
 C         -5.190994   -0.865584    0.380637
 C         -4.321249   -1.917016    0.730765
 C         -2.974359   -1.586211    0.603169
 C         -2.788667   -0.281358    0.154284
 C         -1.381027    0.018723    0.025595
 C         -0.673110   -1.153556    0.413755
 C          0.711575   -1.181229    0.388650
 S         -4.262823    0.570198   -0.119329
 C         -1.635867   -2.272391    0.856498
 H         -4.701822   -2.879207    1.057571
 H          1.263230   -2.073254    0.672464
 C          5.190886    0.865600   -0.380467
 C          4.321143    1.917044   -0.730565
 C          2.974254    1.586241   -0.602968
 C          2.788559    0.281404   -0.154040
 C          1.380918   -0.018668   -0.025348
 C          0.673003    1.153615   -0.413503
 C         -0.711683    1.181285   -0.388396
 S          4.262714   -0.570107    0.119719
 C          1.635754    2.272427   -0.856282
 H          4.701717    2.879213   -1.057434
 H         -1.263339    2.073307   -0.672221
 C         -6.597041   -1.044571    0.457959
 C         -7.687293   -0.240846    0.195701
 C         -7.636961    1.156340   -0.293423
 O         -6.637261    1.826254   -0.535428
 C         -9.037163    1.608739   -0.443008
 C         -9.490096    2.844323   -0.879024
 C        -10.870727    3.076607   -0.956267
 C        -11.741462    2.033376   -0.591648
 C        -11.285847    0.788589   -0.152013
 C         -9.905863    0.566182   -0.072800
 C         -9.100356   -0.609180    0.339922
 C         -9.633162   -1.810800    0.780404
 C        -11.035991   -2.059629    0.884174
 N        -12.167801   -2.317131    0.988491
 C         -8.860976   -2.941211    1.187401
 N         -8.278653   -3.890909    1.531088
 H         -8.774278    3.613517   -1.156058
 H        -12.813756    2.199710   -0.655690
 H        -12.008858    0.028595    0.111134
 H         -6.823041   -2.047667    0.802656
 C          6.596930    1.044536   -0.457933
 C          7.687185    0.240786   -0.195755
 C          7.636857   -1.156401    0.293365
 O          6.637160   -1.826291    0.535449
 C          9.037060   -1.608835    0.442840
 C          9.489993   -2.844427    0.878821
 C         10.870631   -3.076751    0.955941
 C         11.741359   -2.033549    0.591243
 C         11.285739   -0.788748    0.151639
 C          9.905758   -0.566303    0.072547
 C          9.100245    0.609080   -0.340105
 C          9.633047    1.810692   -0.780615
 C         11.035874    2.059479   -0.884505
 N         12.167683    2.316949   -0.988914
 C          8.860861    2.941139   -1.187509
 N          8.278544    3.890856   -1.531157
 H          8.774178   -3.613598    1.155923
 H         12.813653   -2.199913    0.655192
 H         12.008750   -0.028777   -0.111574
 H          6.822929    2.047615   -0.802681
 C         -1.463084   -2.529338    2.372772
 H         -2.201491   -3.252275    2.733578
 H         -0.463131   -2.913213    2.597503
 H         -1.600697   -1.595935    2.926030
 C          1.462891    2.529311   -2.372559
 H          0.463012    2.913447   -2.597183
 H          2.201448    3.252012   -2.733521
 H          1.600215    1.595834   -2.925764
 C         11.411865   -4.414049    1.395772
 H         10.702421   -4.938295    2.043176
 H         11.604069   -5.059869    0.528777
 H         12.357926   -4.305126    1.935551
 C        -11.411991    4.413873   -1.396156
 H        -11.605420    5.059266   -0.529116
 H        -10.702053    4.938647   -2.042582
 H        -12.357425    4.304793   -1.937011
 C          1.465064    3.540692   -0.001509
 C          1.142389    4.785603   -0.547592
 C          1.632885    3.462177    1.391901
 C          0.993789    5.912400    0.268942
 H          1.002830    4.900537   -1.617005
 C          1.484428    4.583210    2.199884
 H          1.883708    2.508532    1.849522
 C          1.161439    5.836087    1.652973
 H          0.743183    6.866876   -0.188323
 H          1.621749    4.487054    3.274843
 C         -1.465018   -3.540601    0.001670
 C         -1.141037   -4.785251    0.547586
 C         -1.633821   -3.462271   -1.391630
 C         -0.992170   -5.911976   -0.268995
 H         -1.000694   -4.900041    1.616911
 C         -1.485094   -4.583235   -2.199663
 H         -1.885649   -2.508832   -1.849126
 C         -1.160831   -5.835850   -1.652919
 H         -0.740540   -6.866241    0.188149
 H         -1.623197   -4.487235   -3.274535
 C          1.007827    7.051104    2.537171
 H          1.947411    7.292588    3.049821
 H          0.707875    7.930434    1.958918
 H          0.252382    6.886239    3.315181
 C         -1.006968   -7.050813   -2.537148
 H         -0.706312   -7.929972   -1.958996
 H         -1.946662   -7.292802   -3.049356
 H         -0.251952   -6.885593   -3.315497
       106
T1: Total Energy = -3475.02292253
 C         -5.174717   -0.871196    0.373053
 C         -4.288012   -1.935380    0.725174
 C         -2.959167   -1.603905    0.605342
 C         -2.760623   -0.276867    0.153592
 C         -1.389488    0.016704    0.031070
 C         -0.657539   -1.169598    0.418721
 C          0.711302   -1.195333    0.386287
 S         -4.253536    0.576705   -0.122483
 C         -1.620978   -2.287801    0.862638
 H         -4.671968   -2.897583    1.046377
 H          1.270224   -2.084161    0.664824
 C          5.174719    0.871181   -0.373056
 C          4.288015    1.935365   -0.725174
 C          2.959169    1.603875   -0.605390
 C          2.760625    0.276829   -0.153663
 C          1.389489   -0.016749   -0.031162
 C          0.657540    1.169553   -0.418811
 C         -0.711300    1.195287   -0.386383
 S          4.253538   -0.576739    0.122425
 C          1.620980    2.287764   -0.862707
 H          4.671970    2.897581   -1.046340
 H         -1.270222    2.084117   -0.664916
 C         -6.567847   -1.055519    0.451093
 C         -7.669831   -0.242776    0.188359
 C         -7.621535    1.158265   -0.298848
 O         -6.621286    1.826809   -0.542482
 C         -9.021052    1.612582   -0.442345
 C         -9.476301    2.847902   -0.872444
 C        -10.859351    3.079454   -0.942849
 C        -11.724365    2.034659   -0.577218
 C        -11.264132    0.786801   -0.142742
 C         -9.885646    0.566397   -0.070876
 C         -9.071323   -0.608623    0.333832
 C         -9.602680   -1.820219    0.772676
 C        -11.003306   -2.069215    0.878960
 N        -12.135653   -2.327116    0.985163
 C         -8.832747   -2.952635    1.171754
 N         -8.255707   -3.908293    1.510483
 H         -8.762530    3.618711   -1.150753
 H        -12.797363    2.198754   -0.634842
 H        -11.985393    0.025550    0.121648
 H         -6.797001   -2.058072    0.792602
 C          6.567850    1.055525   -0.451045
 C          7.669841    0.242785   -0.188324
 C          7.621561   -1.158275    0.298829
 O          6.621321   -1.826821    0.542495
 C          9.021084   -1.612556    0.442381
 C          9.476347   -2.847868    0.872490
 C         10.859399   -3.079392    0.942931
 C         11.724402   -2.034577    0.577327
 C         11.264155   -0.786727    0.142842
 C          9.885666   -0.566353    0.070937
 C          9.071328    0.608656   -0.333776
 C          9.602666    1.820267   -0.772602
 C         11.003288    2.069296   -0.878861
 N         12.135630    2.327228   -0.985045
 C          8.832712    2.952668   -1.171680
 N          8.255649    3.908311   -1.510413
 H          8.762585   -3.618693    1.150776
 H         12.797402   -2.198647    0.634985
 H         11.985407   -0.025459   -0.121519
 H          6.797000    2.058094   -0.792508
 C         -1.452859   -2.541258    2.379566
 H         -2.194426   -3.261542    2.738685
 H         -0.453898   -2.926411    2.605998
 H         -1.589844   -1.606850    2.931203
 C          1.452886    2.541229   -2.379636
 H          0.453927    2.926381   -2.606081
 H          2.194456    3.261518   -2.738739
 H          1.589882    1.606825   -2.931277
 C         11.400150   -4.418924    1.377450
 H         10.765129   -4.875525    2.143581
 H         11.439973   -5.116866    0.530660
 H         12.414811   -4.331187    1.777625
 C        -11.400082    4.418996   -1.377363
 H        -11.439741    5.116987   -0.530606
 H        -10.765141    4.875517   -2.143609
 H        -12.414804    4.331299   -1.777391
 C          1.451509    3.555026   -0.008541
 C          1.131540    4.800504   -0.555376
 C          1.618455    3.474848    1.385046
 C          0.984083    5.926556    0.261521
 H          0.993346    4.915671   -1.624886
 C          1.471272    4.595948    2.193224
 H          1.867321    2.521073    1.843491
 C          1.150799    5.849175    1.646127
 H          0.735311    6.881659   -0.195183
 H          1.607798    4.499382    3.268136
 C         -1.451527   -3.555069    0.008476
 C         -1.131550   -4.800543    0.555312
 C         -1.618498   -3.474898   -1.385108
 C         -0.984109   -5.926600   -0.261582
 H         -0.993338   -4.915706    1.624821
 C         -1.471331   -4.596002   -2.193283
 H         -1.867373   -2.521125   -1.843554
 C         -1.150849   -5.849226   -1.646185
 H         -0.735331   -6.881701    0.195124
 H         -1.607878   -4.499442   -3.268193
 C          0.999404    7.064352    2.530146
 H          1.941594    7.307721    3.037028
 H          0.694452    7.942649    1.953087
 H          0.248977    6.897958    3.312554
 C         -0.999464   -7.064407   -2.530201
 H         -0.694581   -7.942719   -1.953130
 H         -1.941638   -7.307730   -3.037134
 H         -0.248987   -6.898043   -3.312569
       106
S1: Total Energy = -3475.00235453
 C         -5.176910   -0.872266    0.378104
 C         -4.299359   -1.928730    0.732397
 C         -2.961444   -1.595871    0.608794
 C         -2.768961   -0.278803    0.152547
 C         -1.386530    0.017953    0.028511
 C         -0.661106   -1.163591    0.421268
 C          0.713112   -1.190194    0.390851
 S         -4.255930    0.571769   -0.125104
 C         -1.624516   -2.279878    0.867201
 H         -4.680806   -2.890039    1.059107
 H          1.270297   -2.078311    0.674681
 C          5.176920    0.872368   -0.377950
 C          4.299372    1.928859   -0.732166
 C          2.961457    1.596012   -0.608526
 C          2.768974    0.278939   -0.152288
 C          1.386543   -0.017813   -0.028240
 C          0.661119    1.163735   -0.420987
 C         -0.713100    1.190336   -0.390573
 S          4.255944   -0.571625    0.125384
 C          1.624529    2.280025   -0.866912
 H          4.680818    2.890158   -1.058903
 H         -1.270285    2.078453   -0.674402
 C         -6.579660   -1.054008    0.457181
 C         -7.674921   -0.244914    0.190813
 C         -7.621861    1.155639   -0.299391
 O         -6.618409    1.819797   -0.543686
 C         -9.019032    1.613531   -0.443344
 C         -9.470424    2.849232   -0.874763
 C        -10.853379    3.085628   -0.945187
 C        -11.721393    2.043625   -0.577469
 C        -11.265826    0.794669   -0.141606
 C         -9.887176    0.568230   -0.069445
 C         -9.081332   -0.607051    0.335632
 C         -9.615250   -1.820223    0.774151
 C        -11.015328   -2.066320    0.881346
 N        -12.149189   -2.320263    0.987918
 C         -8.846204   -2.952991    1.169525
 N         -8.265175   -3.908452    1.504595
 H         -8.754141    3.617367   -1.154277
 H        -12.793886    2.211592   -0.634629
 H        -11.989303    0.036031    0.124357
 H         -6.808014   -2.055080    0.804314
 C          6.579669    1.054051   -0.457166
 C          7.674910    0.244887   -0.190935
 C          7.621805   -1.155690    0.299193
 O          6.618331   -1.819791    0.543555
 C          9.018961   -1.613675    0.443003
 C          9.470314   -2.849424    0.874326
 C         10.853259   -3.085913    0.944605
 C         11.721307   -2.043950    0.576848
 C         11.265780   -0.794946    0.141083
 C          9.887136   -0.568414    0.069065
 C          9.081330    0.606939   -0.335879
 C          9.615287    1.820106   -0.774367
 C         11.015371    2.066116   -0.881684
 N         12.149237    2.319993   -0.988362
 C          8.846281    2.952967   -1.169554
 N          8.265282    3.908497   -1.504482
 H          8.754009   -3.617524    1.153878
 H         12.793795   -2.211988    0.633899
 H         11.989280   -0.036343   -0.124916
 H          6.808038    2.055122   -0.804293
 C         -1.453722   -2.536294    2.383095
 H         -2.194494   -3.257779    2.741429
 H         -0.454556   -2.922085    2.607678
 H         -1.590413   -1.603129    2.936809
 C          1.453721    2.536459   -2.382801
 H          0.454559    2.922274   -2.607366
 H          2.194503    3.257932   -2.741138
 H          1.590386    1.603297   -2.936526
 C         11.388724   -4.426398    1.381678
 H         10.778135   -4.857706    2.181977
 H         11.380830   -5.141317    0.548095
 H         12.420256   -4.349597    1.738437
 C        -11.388881    4.426058   -1.382384
 H        -11.380787    5.141123   -0.548929
 H        -10.778432    4.857204   -2.182880
 H        -12.420484    4.349235   -1.738929
 C          1.456813    3.544533   -0.008878
 C          1.130097    4.790742   -0.550934
 C          1.632236    3.460806    1.384056
 C          0.984469    5.913675    0.269753
 H          0.985350    4.908061   -1.619300
 C          1.486529    4.579188    2.195980
 H          1.886634    2.506540    1.838174
 C          1.159698    5.832898    1.653780
 H          0.730449    6.869431   -0.182509
 H          1.629456    4.480342    3.269770
 C         -1.456785   -3.544394    0.009182
 C         -1.130018   -4.790585    0.551250
 C         -1.632243   -3.460693   -1.383749
 C         -0.984371   -5.913525   -0.269424
 H         -0.985247   -4.907884    1.619614
 C         -1.486518   -4.579083   -2.195659
 H         -1.886684   -2.506443   -1.837875
 C         -1.159633   -5.832775   -1.653448
 H         -0.730313   -6.869267    0.182846
 H         -1.629474   -4.480257   -3.269448
 C          1.011882    7.045669    2.541186
 H          1.961455    7.299213    3.029059
 H          0.685701    7.920784    1.971058
 H          0.279619    6.869927    3.338507
 C         -1.011792   -7.045552   -2.540842
 H         -0.685637   -7.920665   -1.970695
 H         -1.961347   -7.299092   -3.028749
 H         -0.279497   -6.869819   -3.338135
