        80
S0: Total Energy = -3331.24873556
 C         -5.151171    1.127518    0.000157
 C         -4.240960    2.205447    0.000260
 C         -2.907946    1.805765    0.000278
 C         -2.772827    0.418093    0.000182
 C         -1.378950    0.042960    0.000166
 C         -0.627967    1.253410    0.000263
 C          0.757049    1.216150    0.000255
 S         -4.276360   -0.424361    0.000099
 C         -1.546754    2.482832    0.000363
 H         -4.588202    3.233601    0.000299
 H          1.349619    2.126995    0.000326
 C          5.151171   -1.127518   -0.000014
 C          4.240960   -2.205447   -0.000098
 C          2.907946   -1.805765   -0.000041
 C          2.772827   -0.418093    0.000089
 C          1.378950   -0.042960    0.000141
 C          0.627967   -1.253410    0.000042
 C         -0.757049   -1.216150    0.000057
 S          4.276360    0.424361    0.000139
 C          1.546754   -2.482833   -0.000092
 H          4.588202   -3.233601   -0.000193
 H         -1.349619   -2.126995   -0.000020
 C         -6.546736    1.371164    0.000044
 C         -7.668948    0.564695   -0.000058
 C         -7.671487   -0.914252    0.000111
 O         -6.703449   -1.667940    0.000229
 C         -9.088820   -1.338615    0.000145
 C         -9.583327   -2.636558    0.000331
 C        -10.961640   -2.789014    0.000334
 C        -11.803761   -1.668429    0.000154
 C        -11.307468   -0.371088   -0.000039
 C         -9.917387   -0.203118   -0.000040
 C         -9.063447    1.013226   -0.000238
 C         -9.552815    2.309608   -0.000601
 C        -10.945795    2.625510   -0.000710
 N        -12.069100    2.935525   -0.000803
 C         -8.739173    3.483413   -0.000966
 N         -8.122343    4.472466   -0.001284
 H         -8.925442   -3.498927    0.000468
 H        -12.015972    0.445648   -0.000172
 H         -6.736532    2.438771    0.000039
 C          6.546736   -1.371164   -0.000043
 C          7.668948   -0.564695    0.000002
 C          7.671487    0.914252    0.000038
 O          6.703449    1.667940    0.000101
 C          9.088820    1.338615   -0.000028
 C          9.583327    2.636559   -0.000042
 C         10.961640    2.789014   -0.000115
 C         11.803761    1.668429   -0.000171
 C         11.307468    0.371088   -0.000153
 C          9.917387    0.203118   -0.000080
 C          9.063447   -1.013226   -0.000034
 C          9.552815   -2.309608   -0.000000
 C         10.945795   -2.625510   -0.000055
 N         12.069100   -2.935524   -0.000101
 C          8.739174   -3.483413    0.000112
 N          8.122343   -4.472466    0.000208
 H          8.925441    3.498927    0.000001
 H         12.015972   -0.445648   -0.000199
 H          6.736532   -2.438771   -0.000125
 C         -1.340745    3.343331   -1.267154
 H         -2.054110    4.174593   -1.282050
 H         -0.330166    3.765559   -1.285379
 H         -1.482774    2.750836   -2.176366
 C         -1.340789    3.343077    1.268059
 H         -1.482855    2.750400    2.177147
 H         -0.330207    3.765293    1.286406
 H         -2.054151    4.174338    1.283094
 C          1.340784   -3.343342    1.267423
 H          0.330206   -3.765572    1.285674
 H          2.054151   -4.174601    1.282293
 H          1.482837   -2.750853    2.176636
 C          1.340751   -3.343066   -1.267789
 H          2.054110   -4.174329   -1.282852
 H          0.330167   -3.765280   -1.286111
 H          1.482791   -2.750382   -2.176877
 F         13.127254    1.874860   -0.000243
 F         11.519677    4.005676   -0.000135
 F        -11.519677   -4.005676    0.000510
 F        -13.127255   -1.874860    0.000170
        80
T1: Total Energy = -3331.20176464
 C         -5.134484    1.130430    0.000386
 C         -4.208044    2.220044    0.000538
 C         -2.892003    1.822095    0.000610
 C         -2.745533    0.413519    0.000523
 C         -1.387016    0.047331    0.000530
 C         -0.612272    1.269424    0.000642
 C          0.756991    1.228581    0.000634
 S         -4.268652   -0.430216    0.000410
 C         -1.531573    2.499084    0.000737
 H         -4.558337    3.246621    0.000543
 H          1.356695    2.134375    0.000706
 C          5.134484   -1.130431    0.000155
 C          4.208045   -2.220046    0.000077
 C          2.892003   -1.822096    0.000216
 C          2.745533   -0.413520    0.000407
 C          1.387017   -0.047333    0.000497
 C          0.612272   -1.269425    0.000382
 C         -0.756991   -1.228583    0.000410
 S          4.268652    0.430215    0.000438
 C          1.531573   -2.499086    0.000194
 H          4.558338   -3.246622   -0.000093
 H         -1.356695   -2.134376    0.000317
 C         -6.519283    1.379360    0.000134
 C         -7.651805    0.565006   -0.000063
 C         -7.655864   -0.918182    0.000329
 O         -6.686469   -1.669612    0.000683
 C         -9.071897   -1.342820    0.000262
 C         -9.568587   -2.639140    0.000605
 C        -10.948256   -2.789111    0.000466
 C        -11.785431   -1.666658   -0.000009
 C        -11.285499   -0.368697   -0.000361
 C         -9.896458   -0.203979   -0.000218
 C         -9.036001    1.009427   -0.000528
 C         -9.524262    2.314702   -0.001265
 C        -10.915121    2.630597   -0.001618
 N        -12.039373    2.940273   -0.001916
 C         -8.713341    3.487943   -0.001864
 N         -8.101606    4.481144   -0.002393
 H         -8.912763   -3.503100    0.000966
 H        -11.992434    0.449402   -0.000721
 H         -6.711834    2.445603    0.000066
 C          6.519283   -1.379361   -0.000022
 C          7.651805   -0.565007   -0.000024
 C          7.655863    0.918182    0.000204
 O          6.686467    1.669611    0.000482
 C          9.071895    1.342821    0.000034
 C          9.568584    2.639141    0.000142
 C         10.948253    2.789113   -0.000075
 C         11.785429    1.666660   -0.000390
 C         11.285498    0.368700   -0.000490
 C          9.896458    0.203980   -0.000268
 C          9.036001   -1.009427   -0.000289
 C          9.524265   -2.314701   -0.000511
 C         10.915123   -2.630595   -0.000784
 N         12.039376   -2.940269   -0.001010
 C          8.713344   -3.487943   -0.000493
 N          8.101612   -4.481146   -0.000486
 H          8.912759    3.503100    0.000382
 H         11.992434   -0.449399   -0.000735
 H          6.711835   -2.445604   -0.000221
 C         -1.328238    3.358928   -1.267392
 H         -2.044784    4.187183   -1.281999
 H         -0.318849    3.783634   -1.284713
 H         -1.468198    2.765798   -2.176403
 C         -1.328348    3.358629    1.269086
 H         -1.468401    2.765287    2.177945
 H         -0.318954    3.783315    1.286601
 H         -2.044886    4.186888    1.283818
 C          1.328351   -3.358950    1.268327
 H          0.318966   -3.783662    1.285726
 H          2.044903   -4.187201    1.282859
 H          1.468384   -2.765834    2.177336
 C          1.328236   -3.358610   -1.268152
 H          2.044768   -4.186873   -1.282958
 H          0.318839   -3.783290   -1.285588
 H          1.468215   -2.765255   -2.177013
 F         13.109992    1.867480   -0.000596
 F         11.508761    4.005744    0.000007
 F        -11.508765   -4.005741    0.000781
 F        -13.109995   -1.867476   -0.000120
        80
S1: Total Energy = -3331.18161298
 C         -5.135150    1.133699    0.011735
 C         -4.217638    2.217772    0.013647
 C         -2.893351    1.817658    0.018881
 C         -2.752555    0.416500    0.020999
 C         -1.383820    0.046599    0.023702
 C         -0.615148    1.265921    0.023930
 C          0.758785    1.225012    0.024545
 S         -4.269520   -0.425575    0.018759
 C         -1.533770    2.495297    0.021720
 H         -4.565636    3.245102    0.009513
 H          1.357713    2.131190    0.024391
 C          5.135155   -1.133750    0.012096
 C          4.217644   -2.217823    0.013542
 C          2.893356   -1.817711    0.018766
 C          2.752560   -0.416553    0.021365
 C          1.383824   -0.046654    0.023955
 C          0.615152   -1.265976    0.023592
 C         -0.758781   -1.225067    0.023956
 S          4.269526    0.425522    0.019523
 C          1.533774   -2.495351    0.021006
 H          4.565646   -3.245151    0.009108
 H         -1.357709   -2.131245    0.023353
 C         -6.529280    1.381188   -0.000046
 C         -7.654625    0.568749   -0.005654
 C         -7.654402   -0.914903    0.015902
 O         -6.681702   -1.662477    0.032936
 C         -9.068201   -1.342334    0.014995
 C         -9.561442   -2.639498    0.032998
 C        -10.941072   -2.793598    0.027701
 C        -11.781362   -1.672961    0.004764
 C        -11.286088   -0.373757   -0.013743
 C         -9.896255   -0.203313   -0.008295
 C         -9.045060    1.009935   -0.025073
 C         -9.534389    2.316393   -0.057916
 C        -10.924617    2.630973   -0.068660
 N        -12.050236    2.937867   -0.077905
 C         -8.723405    3.487787   -0.087535
 N         -8.107264    4.478802   -0.113143
 H         -8.903193   -3.501470    0.050366
 H        -11.995008    0.442450   -0.031027
 H         -6.721035    2.447796   -0.006936
 C          6.529286   -1.381234    0.000414
 C          7.654622   -0.568785   -0.005083
 C          7.654357    0.914868    0.016375
 O          6.681633    1.662407    0.033626
 C          9.068139    1.342350    0.014962
 C          9.561341    2.639535    0.032521
 C         10.940964    2.793681    0.026723
 C         11.781285    1.673068    0.003732
 C         11.286050    0.373843   -0.014322
 C          9.896224    0.203353   -0.008366
 C          9.045073   -1.009931   -0.024630
 C          9.534477   -2.316371   -0.057144
 C         10.924725   -2.630852   -0.068219
 N         12.050368   -2.937652   -0.077711
 C          8.723579   -3.487843   -0.086063
 N          8.107536   -4.478935   -0.111078
 H          8.903068    3.501488    0.049934
 H         11.994991   -0.442344   -0.031687
 H          6.721044   -2.447838   -0.006640
 C         -1.326540    3.354821   -1.246250
 H         -2.042966    4.183078   -1.262703
 H         -0.317289    3.779973   -1.260835
 H         -1.464153    2.761640   -2.155546
 C         -1.332785    3.355094    1.290570
 H         -1.474168    2.761911    2.199287
 H         -0.323904    3.780896    1.309660
 H         -2.049928    4.182812    1.303559
 C          1.332463   -3.355889    1.289287
 H          0.323568   -3.781686    1.307880
 H          2.049573   -4.183643    1.301960
 H          1.473640   -2.763257    2.198397
 C          1.326869   -3.354136   -1.247533
 H          2.043334   -4.182350   -1.264308
 H          0.317634   -3.779301   -1.262604
 H          1.464676   -2.760402   -2.156438
 F         13.105033    1.878713   -0.000872
 F         11.498266    4.011805    0.042832
 F        -11.498411   -4.011699    0.044265
 F        -13.105118   -1.878561    0.000673
