        80
S0: Total Energy = -4772.69878979
 C         -5.090305    1.371308    0.000380
 C         -4.129364    2.405599    0.000547
 C         -2.817617    1.943200    0.000666
 C         -2.748936    0.549962    0.000575
 C         -1.374897    0.108993    0.000600
 C         -0.566999    1.282435    0.000731
 C          0.814449    1.178744    0.000722
 S         -4.289864   -0.220675    0.000418
 C         -1.425733    2.554411    0.000841
 H         -4.427805    3.449026    0.000535
 H          1.450139    2.059907    0.000807
 C          5.090305   -1.371308    0.000171
 C          4.129364   -2.405599    0.000097
 C          2.817617   -1.943200    0.000250
 C          2.748936   -0.549962    0.000451
 C          1.374897   -0.108993    0.000562
 C          0.566999   -1.282435    0.000433
 C         -0.814449   -1.178744    0.000462
 S          4.289864    0.220675    0.000463
 C          1.425733   -2.554411    0.000221
 H          4.427805   -3.449026   -0.000079
 H         -1.450139   -2.059907    0.000354
 C         -6.471403    1.680495    0.000065
 C         -7.631367    0.926582   -0.000129
 C         -7.700327   -0.549770    0.000307
 O         -6.768928   -1.347930    0.000683
 C         -9.137439   -0.907771    0.000258
 C         -9.694897   -2.174500    0.000654
 C        -11.086910   -2.284728    0.000536
 C        -11.881126   -1.122354    0.000017
 C        -11.303723    0.152821   -0.000390
 C         -9.912294    0.263280   -0.000264
 C         -9.002397    1.440543   -0.000621
 C         -9.431587    2.757799   -0.001408
 C        -10.808352    3.138088   -0.001806
 N        -11.915869    3.500358   -0.002147
 C         -8.564014    3.892443   -0.002001
 N         -7.899781    4.850241   -0.002517
 H         -9.065780   -3.057880    0.001049
 H        -11.960303    1.011202   -0.000778
 H         -6.611275    2.755804   -0.000060
 C          6.471403   -1.680495   -0.000016
 C          7.631367   -0.926582   -0.000041
 C          7.700327    0.549770    0.000159
 O          6.768927    1.347930    0.000418
 C          9.137439    0.907771   -0.000016
 C          9.694897    2.174500    0.000067
 C         11.086910    2.284729   -0.000142
 C         11.881126    1.122355   -0.000430
 C         11.303723   -0.152821   -0.000510
 C          9.912294   -0.263280   -0.000298
 C          9.002397   -1.440543   -0.000310
 C          9.431588   -2.757800   -0.000535
 C         10.808352   -3.138088   -0.000800
 N         11.915869   -3.500359   -0.001020
 C          8.564014   -3.892444   -0.000535
 N          7.899782   -4.850242   -0.000543
 H          9.065779    3.057880    0.000287
 H         11.960303   -1.011202   -0.000735
 H          6.611275   -2.755804   -0.000198
 C         -1.179051    3.404191   -1.266658
 H         -1.853556    4.267225   -1.282156
 H         -0.150122    3.779563   -1.283646
 H         -1.347293    2.818767   -2.175970
 C         -1.179248    3.403817    1.268631
 H         -1.347614    2.818117    2.177742
 H         -0.150328    3.779199    1.285881
 H         -1.853775    4.266830    1.284287
 C          1.179198   -3.404200    1.267742
 H          0.150275   -3.779583    1.284840
 H          1.853716   -4.267226    1.283160
 H          1.347534   -2.818780    2.177039
 C          1.179101   -3.403808   -1.267547
 H          1.853616   -4.266829   -1.283283
 H          0.150175   -3.779179   -1.284687
 H          1.347373   -2.818105   -2.176674
Cl        -13.621357   -1.229839   -0.000134
Cl        -11.803311   -3.872514    0.001041
Cl         13.621356    1.229839   -0.000699
Cl         11.803310    3.872515   -0.000039
        80
T1: Total Energy = -4772.65241299
 C          5.073680   -1.373294    0.001628
 C          4.096883   -2.418237    0.001968
 C          2.801216   -1.958264    0.002529
 C          2.722328   -0.544321    0.002637
 C          1.382674   -0.113581    0.002832
 C          0.550794   -1.297352    0.002937
 C         -0.814965   -1.191009    0.002898
 S          4.283021    0.226426    0.002271
 C          1.410072   -2.569466    0.002946
 H          4.398512   -3.460211    0.001649
 H         -1.457224   -2.067012    0.002918
 C         -5.073679    1.373292    0.001154
 C         -4.096882    2.418236    0.001311
 C         -2.801215    1.958262    0.001956
 C         -2.722327    0.544319    0.002316
 C         -1.382674    0.113579    0.002682
 C         -0.550793    1.297350    0.002626
 C          0.814966    1.191007    0.002743
 S         -4.283020   -0.226427    0.002006
 C         -1.410071    2.569464    0.002278
 H         -4.398511    3.460209    0.000852
 H          1.457225    2.067011    0.002650
 C          6.444909   -1.687431    0.000497
 C          7.614882   -0.926545   -0.000136
 C          7.686109    0.554195    0.001302
 O          6.753523    1.350370    0.002902
 C          9.122028    0.912167    0.000567
 C          9.681446    2.176911    0.001553
 C         11.075110    2.284255    0.000602
 C         11.863926    1.120290   -0.001325
 C         11.282935   -0.155377   -0.002336
 C          9.892423   -0.262481   -0.001374
 C          8.976332   -1.435646   -0.002045
 C          9.403228   -2.762406   -0.004398
 C         10.777548   -3.143525   -0.006158
 N         11.885549   -3.507004   -0.007634
 C          8.537964   -3.896150   -0.005575
 N          7.879380   -4.858887   -0.006643
 H          9.054835    3.062084    0.003032
 H         11.937893   -1.014956   -0.003813
 H          6.587238   -2.761491   -0.000104
 C         -6.444909    1.687430    0.000158
 C         -7.614882    0.926545   -0.000270
 C         -7.686109   -0.554196    0.000874
 O         -6.753523   -1.350372    0.002210
 C         -9.122029   -0.912167    0.000174
 C         -9.681447   -2.176911    0.000877
 C        -11.075111   -2.284254   -0.000007
 C        -11.863927   -1.120288   -0.001588
 C        -11.282936    0.155379   -0.002296
 C         -9.892423    0.262481   -0.001393
 C         -8.976331    1.435647   -0.001792
 C         -9.403228    2.762408   -0.003484
 C        -10.777548    3.143528   -0.004896
 N        -11.885549    3.507007   -0.006082
 C         -8.537965    3.896153   -0.004135
 N         -7.879381    4.858890   -0.004737
 H         -9.054836   -3.062085    0.002085
 H        -11.937893    1.014958   -0.003514
 H         -6.587237    2.761490   -0.000484
 C          1.165512   -3.418683   -1.265082
 H          1.842548   -4.279468   -1.280206
 H          0.137333   -3.795713   -1.281027
 H          1.332165   -2.832749   -2.174253
 C          1.166168   -3.418187    1.271439
 H          1.333233   -2.831874    2.180291
 H          0.138019   -3.795262    1.288035
 H          1.843273   -4.278918    1.286577
 C         -1.166207    3.418546    1.270535
 H         -0.138061    3.795633    1.287053
 H         -1.843314    4.279281    1.285410
 H         -1.333295    2.832492    2.179549
 C         -1.165470    3.418321   -1.265986
 H         -1.842506    4.279102   -1.281374
 H         -0.137289    3.795340   -1.282008
 H         -1.332100    2.832128   -2.174994
Cl         13.604784    1.221242   -0.002528
Cl         11.795001    3.871426    0.001864
Cl        -13.604784   -1.221239   -0.002723
Cl        -11.795003   -3.871425    0.000891
        80
S1: Total Energy = -4772.63262621
 C          5.074247   -1.376079    0.020525
 C          4.106352   -2.415939    0.027456
 C          2.802833   -1.953453    0.037341
 C          2.729087   -0.546961    0.038144
 C          1.379603   -0.112287    0.043618
 C          0.553890   -1.293754    0.046656
 C         -0.816414   -1.187324    0.047071
 S          4.283643    0.222477    0.029785
 C          1.412635   -2.565471    0.046809
 H          4.405539   -3.458599    0.022958
 H         -1.457792   -2.063849    0.048014
 C         -5.074366    1.376488    0.020198
 C         -4.106486    2.416380    0.023502
 C         -2.802951    1.953935    0.033495
 C         -2.729189    0.547453    0.038300
 C         -1.379699    0.112803    0.044039
 C         -0.553988    1.294276    0.042923
 C          0.816318    1.187844    0.042984
 S         -4.283736   -0.222025    0.033066
 C         -1.412746    2.565985    0.039075
 H         -4.405707    3.459018    0.016481
 H          1.457710    2.064356    0.040921
 C          6.454445   -1.689281    0.001364
 C          7.617268   -0.930158   -0.009352
 C          7.685300    0.550805    0.016241
 O          6.749938    1.343998    0.040523
 C          9.119446    0.910623    0.009014
 C          9.676279    2.176023    0.029332
 C         11.070163    2.286915    0.017908
 C         11.861437    1.124052   -0.013991
 C         11.284343   -0.152453   -0.034747
 C          9.892425   -0.264557   -0.023002
 C          8.985320   -1.437265   -0.038952
 C          9.411855   -2.764814   -0.080149
 C         10.785411   -3.145287   -0.104906
 N         11.894300   -3.507161   -0.126185
 C          8.545646   -3.896285   -0.105903
 N          7.882405   -4.856374   -0.128561
 H          9.047786    3.059544    0.053473
 H         11.940788   -1.010578   -0.058610
 H          6.595858   -2.763675   -0.007816
 C         -6.454588    1.689602    0.001620
 C         -7.617341    0.930359   -0.007412
 C         -7.685092   -0.550610    0.018387
 O         -6.749575   -1.343595    0.043528
 C         -9.119153   -0.910732    0.009882
 C         -9.675734   -2.176260    0.029077
 C        -11.069583   -2.287442    0.016281
 C        -11.861076   -1.124730   -0.015718
 C        -11.284235    0.151909   -0.035239
 C         -9.892352    0.264298   -0.022235
 C         -8.985499    1.437217   -0.036847
 C         -9.412395    2.764703   -0.076414
 C        -10.786054    3.144783   -0.101532
 N        -11.895051    3.506314   -0.123066
 C         -8.546559    3.896517   -0.099525
 N         -7.883695    4.856917   -0.119907
 H         -9.047074   -3.059659    0.053338
 H        -11.940841    1.009907   -0.059264
 H         -6.596053    2.763971   -0.009243
 C          1.160084   -3.420496   -1.215859
 H          1.836745   -4.281544   -1.230691
 H          0.131919   -3.797912   -1.223841
 H          1.321523   -2.839051   -2.128811
 C          1.175481   -3.408237    1.320941
 H          1.346214   -2.817248    2.226040
 H          0.148176   -3.787150    1.344282
 H          1.854143   -4.267687    1.336695
 C         -1.173816    3.414471    1.309014
 H         -0.146405    3.793313    1.329274
 H         -1.852234    4.274179    1.321755
 H         -1.343456    2.827675    2.217045
 C         -1.161986    3.415337   -1.227829
 H         -1.838957    4.276069   -1.245710
 H         -0.133944    3.792969   -1.238851
 H         -1.324453    2.829671   -2.137893
Cl         13.601903    1.230192   -0.028702
Cl         11.786599    3.875032    0.044002
Cl        -13.601505   -1.231232   -0.032144
Cl        -11.785704   -3.875727    0.040782
