        88
S0: Total Energy = -3163.36432485
 C          5.205945   -0.851194    0.064902
 C          4.354918   -1.974507    0.110543
 C          3.002812   -1.645100    0.116447
 C          2.791520   -0.268434    0.086647
 C          1.376836    0.021230    0.069555
 C          0.695716   -1.228888    0.026743
 C         -0.692034   -1.253853   -0.060274
 S          4.251044    0.650087    0.026102
 C          1.686098   -2.402253    0.117580
 H          4.754689   -2.983235    0.132574
 C         -5.206030    0.851376   -0.064995
 C         -4.355034    1.974706   -0.110692
 C         -3.002915    1.645320   -0.116580
 C         -2.791610    0.268663   -0.086752
 C         -1.376935   -0.021008   -0.069590
 C         -0.695817    1.229126   -0.026786
 C          0.691914    1.254093    0.060261
 S         -4.251115   -0.649896   -0.026245
 C         -1.686208    2.402489   -0.117637
 H         -4.754822    2.983427   -0.132740
 C          6.613566   -1.022611    0.050993
 C          7.691010   -0.159987    0.003901
 C          7.615132    1.317182   -0.056871
 O          6.603510    2.012581   -0.064130
 C          9.006049    1.816830   -0.109171
 C          9.438359    3.134012   -0.178367
 C         10.814019    3.372846   -0.218814
 C         11.713543    2.300205   -0.189071
 C         11.272695    0.974272   -0.119047
 C          9.895760    0.726760   -0.078651
 C          9.108290   -0.532450   -0.003901
 C          9.663182   -1.801596    0.050199
 C         11.069444   -2.052222    0.032885
 N         12.203950   -2.318529    0.021804
 C          8.911303   -3.013276    0.131758
 N          8.347006   -4.031141    0.199600
 H          8.715710    3.943954   -0.200175
 H         11.189599    4.390267   -0.273433
 H         12.781105    2.496707   -0.221048
 H         12.002724    0.176932   -0.098667
 H          6.857920   -2.078505    0.084796
 C         -6.613656    1.022733   -0.051047
 C         -7.690998    0.160001   -0.003881
 C         -7.614907   -1.317151    0.056984
 O         -6.603177   -2.012396    0.064231
 C         -9.005754   -1.816989    0.109286
 C         -9.437874   -3.134232    0.178520
 C        -10.813498   -3.373265    0.218970
 C        -11.713176   -2.300754    0.189189
 C        -11.272521   -0.974759    0.119126
 C         -9.895621   -0.727043    0.078729
 C         -9.108325    0.532279    0.003943
 C         -9.663356    1.801366   -0.050184
 C        -11.069641    2.051863   -0.032890
 N        -12.204169    2.318077   -0.021827
 C         -8.911594    3.013117   -0.131762
 N         -8.347322    4.030997   -0.199597
 H         -8.715106   -3.944068    0.200361
 H        -11.188931   -4.390738    0.273623
 H        -12.780710   -2.497410    0.221165
 H        -12.002670   -0.177532    0.098713
 H         -6.858094    2.078608   -0.084886
 C          1.613495   -3.374426   -1.080246
 H          2.446417   -4.084498   -1.032594
 H          0.684104   -3.948333   -1.054784
 H          1.676049   -2.840487   -2.033905
 C          1.485263   -3.181740    1.440591
 H          1.574935   -2.519034    2.307143
 H          0.494162   -3.644000    1.455899
 H          2.239633   -3.971110    1.531718
 C         -1.613632    3.374582    1.080272
 H         -0.684209    3.948439    1.054871
 H         -2.446534    4.084677    1.032618
 H         -1.676252    2.840570    2.033881
 C         -1.485322    3.182066   -1.440571
 H         -2.239702    3.971431   -1.531693
 H         -0.494234    3.644356   -1.455805
 H         -1.574934    2.519432   -2.307187
 O          1.389011    2.441702    0.084193
 O         -1.389221   -2.441411   -0.084181
 C          1.887138    2.836098    1.376607
 H          1.062504    3.014250    2.074121
 H          2.558440    2.080350    1.795637
 H          2.441374    3.761768    1.214063
 C         -1.887094   -2.835948   -1.376646
 H         -2.558960   -2.080607   -1.795513
 H         -1.062379   -3.013421   -2.074228
 H         -2.440666   -3.762038   -1.214217
        88
T1: Total Energy = -3163.31722169
 C          5.190090    0.854326   -0.064774
 C          4.323319    1.989608   -0.120265
 C          2.988535    1.661229   -0.129575
 C          2.763869    0.263620   -0.091274
 C          1.384396   -0.016356   -0.084417
 C          0.682151    1.246359   -0.048751
 C         -0.687477    1.267914    0.058626
 S          4.242518   -0.656548   -0.017967
 C          1.672610    2.417909   -0.154278
 H          4.725947    2.996572   -0.146199
 C         -5.190083   -0.854284    0.064739
 C         -4.323310   -1.989566    0.120220
 C         -2.988526   -1.661187    0.129508
 C         -2.763860   -0.263579    0.091199
 C         -1.384387    0.016396    0.084329
 C         -0.682143   -1.246318    0.048659
 C          0.687486   -1.267873   -0.058716
 S         -4.242510    0.656589    0.017902
 C         -1.672601   -2.417868    0.154199
 H         -4.725938   -2.996529    0.146175
 C          6.586232    1.031305   -0.047550
 C          7.674185    0.160144    0.002894
 C          7.599856   -1.321125    0.059637
 O          6.587235   -2.014681    0.069585
 C          8.989916   -1.821277    0.102718
 C          9.424495   -3.137338    0.162168
 C         10.801951   -3.374263    0.193739
 C         11.696701   -2.299094    0.165079
 C         11.251868   -0.972106    0.105179
 C          9.875582   -0.727647    0.073715
 C          9.080558    0.529371    0.010794
 C          9.634559    1.808104   -0.032023
 C         11.038689    2.059069   -0.016282
 N         12.173949    2.325811   -0.006022
 C          8.885138    3.019957   -0.096881
 N          8.326437    4.042705   -0.150709
 H          8.703686   -3.949040    0.183210
 H         11.180063   -4.391085    0.240407
 H         12.765218   -2.492043    0.189752
 H         11.980233   -0.173220    0.085097
 H          6.833515    2.085595   -0.082517
 C         -6.586226   -1.031271    0.047558
 C         -7.674197   -0.160130   -0.002857
 C         -7.599914    1.321139   -0.059646
 O         -6.587316    2.014728   -0.069636
 C         -8.989989    1.821249   -0.102723
 C         -9.424607    3.137295   -0.162221
 C        -10.802070    3.374179   -0.193782
 C        -11.696789    2.298985   -0.165065
 C        -11.251917    0.972013   -0.105116
 C         -9.875623    0.727594   -0.073663
 C         -9.080558   -0.529397   -0.010701
 C         -9.634507   -1.808150    0.032195
 C        -11.038624   -2.059182    0.016472
 N        -12.173869   -2.325990    0.006233
 C         -8.885026   -3.019963    0.097094
 N         -8.326257   -4.042671    0.150976
 H         -8.703822    3.949017   -0.183307
 H        -11.180213    4.390988   -0.240488
 H        -12.765311    2.491903   -0.189731
 H        -11.980259    0.173108   -0.084993
 H         -6.833497   -2.085564    0.082540
 C          1.591651    3.415415    1.021176
 H          2.422843    4.126318    0.961043
 H          0.660104    3.984665    0.977695
 H          1.651329    2.902974    1.986611
 C          1.484465    3.166895   -1.496755
 H          1.575800    2.483975   -2.347179
 H          0.495307    3.632732   -1.527849
 H          2.243509    3.949828   -1.601070
 C         -1.591657   -3.415376   -1.021255
 H         -0.660114   -3.984634   -0.977778
 H         -2.422853   -4.126273   -0.961115
 H         -1.651336   -2.902937   -1.986690
 C         -1.484442   -3.166852    1.496674
 H         -2.243486   -3.949785    1.600999
 H         -0.495284   -3.632690    1.527758
 H         -1.575768   -2.483931    2.347098
 O          1.396070   -2.444740   -0.080503
 O         -1.396059    2.444782    0.080420
 C          1.901082   -2.839700   -1.372179
 H          1.077062   -3.044113   -2.062937
 H          2.552469   -2.071880   -1.799878
 H          2.477488   -3.749798   -1.201099
 C         -1.901047    2.839751    1.372102
 H         -2.552398    2.071919    1.799835
 H         -1.077012    3.044202    2.062832
 H         -2.477485    3.749829    1.201022
        88
S1: Total Energy = -3163.29691264
 C          5.191545    0.857063   -0.064997
 C          4.333365    1.986619   -0.118025
 C          2.990208    1.656595   -0.127499
 C          2.771423    0.266150   -0.092549
 C          1.381335   -0.016665   -0.083579
 C          0.685503    1.242189   -0.044624
 C         -0.689188    1.264466    0.061913
 S          4.244218   -0.652332   -0.021506
 C          1.675440    2.414012   -0.145345
 H          4.733905    2.994435   -0.142211
 C         -5.191536   -0.857055    0.065040
 C         -4.333361   -1.986616    0.118066
 C         -2.990204   -1.656598    0.127564
 C         -2.771414   -0.266153    0.092634
 C         -1.381327    0.016657    0.083690
 C         -0.685496   -1.242195    0.044740
 C          0.689192   -1.264475   -0.061800
 S         -4.244203    0.652338    0.021589
 C         -1.675436   -2.414018    0.145417
 H         -4.733907   -2.994431    0.142227
 C          6.596926    1.031947   -0.047797
 C          7.678008    0.162799    0.001177
 C          7.599067   -1.318669    0.059375
 O          6.583227   -2.008243    0.069000
 C          8.986736   -1.821866    0.104929
 C          9.417562   -3.138767    0.166766
 C         10.794646   -3.380142    0.200115
 C         11.692566   -2.306903    0.170420
 C         11.252669   -0.978836    0.107925
 C          9.876020   -0.728472    0.075050
 C          9.090079    0.528381    0.009244
 C          9.646047    1.808180   -0.036585
 C         11.049554    2.057356   -0.016749
 N         12.186182    2.320763   -0.002948
 C          8.897433    3.018760   -0.109069
 N          8.335369    4.040137   -0.169461
 H          8.694277   -3.948296    0.188241
 H         11.169851   -4.397944    0.248817
 H         12.760503   -2.503375    0.196341
 H         11.983285   -0.181978    0.086972
 H          6.843512    2.086673   -0.081571
 C         -6.596917   -1.031936    0.047787
 C         -7.677997   -0.162786   -0.001202
 C         -7.599056    1.318684   -0.059347
 O         -6.583217    2.008260   -0.068912
 C         -8.986724    1.821881   -0.104926
 C         -9.417550    3.138783   -0.166727
 C        -10.794633    3.380158   -0.200109
 C        -11.692553    2.306917   -0.170482
 C        -11.252656    0.978848   -0.108022
 C         -9.876008    0.728485   -0.075114
 C         -9.090067   -0.528369   -0.009327
 C         -9.646035   -1.808170    0.036439
 C        -11.049541   -2.057347    0.016555
 N        -12.186169   -2.320753    0.002716
 C         -8.897423   -3.018751    0.108898
 N         -8.335357   -4.040130    0.169254
 H         -8.694266    3.948314   -0.188151
 H        -11.169838    4.397962   -0.248785
 H        -12.760489    2.503388   -0.196429
 H        -11.983272    0.181988   -0.087120
 H         -6.843506   -2.086662    0.081528
 C          1.596611    3.403233    1.037682
 H          2.428976    4.113057    0.982105
 H          0.666201    3.974675    0.998653
 H          1.655957    2.883783    1.999355
 C          1.483986    3.172585   -1.482231
 H          1.573518    2.495788   -2.337683
 H          0.495080    3.639219   -1.507784
 H          2.242929    3.956097   -1.582245
 C         -1.596577   -3.403209   -1.037635
 H         -0.666145   -3.974617   -0.998624
 H         -2.428916   -4.113065   -0.982073
 H         -1.655944   -2.883737   -1.999295
 C         -1.484005   -3.172623    1.482287
 H         -2.242950   -3.956138    1.582268
 H         -0.495099   -3.639257    1.507847
 H         -1.573553   -2.495847    2.337754
 O          1.393026   -2.442550   -0.084878
 O         -1.393044    2.442529    0.084964
 C          1.903704   -2.837825   -1.374989
 H          1.082100   -3.040397   -2.068955
 H          2.558186   -2.070837   -1.799067
 H          2.477470   -3.748902   -1.201077
 C         -1.903882    2.837727    1.375035
 H         -2.558422    2.070712    1.798977
 H         -1.082369    3.040250    2.069123
 H         -2.477623    3.748817    1.201107
