        88
S0: Total Energy = -3361.82913463
 C          5.166280    1.062075   -0.066722
 C          4.270452    2.150596   -0.108762
 C          2.933018    1.766993   -0.114508
 C          2.777663    0.382477   -0.087557
 C          1.376173    0.035489   -0.070587
 C          0.644838    1.256857   -0.024908
 C         -0.742664    1.224671    0.063243
 S          4.272517   -0.476713   -0.030887
 C          1.586425    2.469753   -0.115028
 H          4.630282    3.174226   -0.128260
 C         -5.166223   -1.062021    0.066683
 C         -4.270404   -2.150557    0.108590
 C         -2.932967   -1.766969    0.114321
 C         -2.777609   -0.382452    0.087465
 C         -1.376124   -0.035471    0.070426
 C         -0.644793   -1.256828    0.024788
 C          0.742695   -1.224657   -0.063398
 S         -4.272450    0.476768    0.030990
 C         -1.586370   -2.469732    0.114738
 H         -4.630244   -3.174186    0.128001
 C          6.565156    1.290075   -0.053443
 C          7.677143    0.471221   -0.012928
 C          7.660115   -1.005816    0.034982
 O          6.682202   -1.746712    0.041786
 C          9.073514   -1.448927    0.074266
 C          9.547881   -2.750392    0.126056
 C         10.929974   -2.905707    0.154363
 C         11.804989   -1.818745    0.132016
 C         11.304904   -0.516751    0.079610
 C          9.916867   -0.322835    0.050376
 C          9.079161    0.901310   -0.005585
 C          9.580696    2.193131   -0.043889
 C         10.975995    2.498278   -0.028374
 N         12.100712    2.803340   -0.017650
 C          8.779665    3.373959   -0.104186
 N          8.173792    4.368674   -0.154203
 H          8.878953   -3.603911    0.143954
 H         12.873671   -2.002734    0.155953
 H         12.003811    0.307951    0.063313
 H          6.767316    2.354965   -0.082695
 C         -6.565101   -1.290016    0.053417
 C         -7.677095   -0.471165    0.013011
 C         -7.660091    1.005877   -0.034760
 O         -6.682190    1.746789   -0.041548
 C         -9.073498    1.448970   -0.073972
 C         -9.547885    2.750432   -0.125640
 C        -10.929981    2.905730   -0.153898
 C        -11.804979    1.818754   -0.131622
 C        -11.304875    0.516762   -0.079341
 C         -9.916833    0.322863   -0.050159
 C         -9.079106   -0.901274    0.005671
 C         -9.580611   -2.193110    0.043872
 C        -10.975902   -2.498293    0.028364
 N        -12.100608   -2.803395    0.017642
 C         -8.779545   -3.373921    0.104041
 N         -8.173636   -4.368618    0.153956
 H         -8.878970    3.603962   -0.143481
 H        -12.873665    2.002729   -0.155516
 H        -12.003770   -0.307950   -0.063099
 H         -6.767259   -2.354909    0.082572
 C          1.473350    3.438495    1.082346
 H          2.275193    4.183376    1.034066
 H          0.520558    3.972542    1.056539
 H          1.558379    2.908206    2.036288
 C          1.354409    3.240105   -1.438422
 H          1.469694    2.581157   -2.304800
 H          0.345940    3.663175   -1.453422
 H          2.077257    4.058304   -1.530010
 C         -1.473226   -3.438287   -1.082782
 H         -0.520292   -3.972099   -1.057181
 H         -2.274884   -4.183367   -1.034501
 H         -1.558504   -2.907885   -2.036637
 C         -1.354333   -3.240263    1.438025
 H         -2.077161   -4.058491    1.529498
 H         -0.345853   -3.663312    1.452963
 H         -1.469632   -2.581439    2.304496
 O          1.488332   -2.382061   -0.090074
 O         -1.488417    2.382004    0.089828
 C          1.999439   -2.754774   -1.384039
 H          1.181372   -2.967272   -2.079628
 H          2.637210   -1.971195   -1.804327
 H          2.592556   -3.656294   -1.223142
 C         -2.000444    2.754193    1.383580
 H         -2.638484    1.970405    1.803080
 H         -1.182901    2.966442    2.079854
 H         -2.593492    3.655747    1.222620
 F        -11.446673    4.145390   -0.204241
 F         11.446647   -4.145370    0.204825
        88
T1: Total Energy = -3361.78178288
 C          5.150235   -1.064666    0.070312
 C          4.238165   -2.164371    0.120674
 C          2.917934   -1.782298    0.128849
 C          2.750040   -0.376232    0.094775
 C          1.383578   -0.040451    0.087071
 C          0.630508   -1.273717    0.046282
 C         -0.738371   -1.239015   -0.064217
 S          4.264733    0.483613    0.027112
 C          1.572266   -2.484877    0.149748
 H          4.600312   -3.186624    0.143558
 C         -5.150238    1.064665   -0.070413
 C         -4.238168    2.164368   -0.120834
 C         -2.917938    1.782293   -0.129047
 C         -2.750046    0.376226   -0.094962
 C         -1.383583    0.040441   -0.087290
 C         -0.630513    1.273707   -0.046513
 C          0.738365    1.239004    0.063982
 S         -4.264737   -0.483614   -0.027219
 C         -1.572268    2.484868   -0.149988
 H         -4.600317    3.186619   -0.143737
 C          6.537818   -1.297859    0.053682
 C          7.660557   -0.471071    0.008603
 C          7.646658    1.009310   -0.036112
 O          6.668667    1.750000   -0.043293
 C          9.059679    1.451722   -0.070698
 C          9.536985    2.751555   -0.116108
 C         10.920696    2.903640   -0.140360
 C         11.790525    1.814344   -0.120306
 C         11.285509    0.511772   -0.074627
 C          9.898423    0.322193   -0.049491
 C          9.051959   -0.898932   -0.001193
 C          9.551422   -2.199550    0.027385
 C         10.944568   -2.505931    0.012043
 N         12.069580   -2.812747    0.001304
 C          8.752291   -3.380148    0.074461
 N          8.151827   -4.379515    0.113217
 H          8.870680    3.607181   -0.132189
 H         12.860073    1.993981   -0.140659
 H         11.982232   -0.314811   -0.059954
 H          6.742724   -2.361289    0.084214
 C         -6.537820    1.297860   -0.053790
 C         -7.660557    0.471073   -0.008619
 C         -7.646648   -1.009294    0.036533
 O         -6.668654   -1.749978    0.043844
 C         -9.059664   -1.451699    0.071406
 C         -9.536960   -2.751519    0.117301
 C        -10.920668   -2.903601    0.141758
 C        -11.790503   -1.814315    0.121429
 C        -11.285497   -0.511756    0.075251
 C         -9.898415   -0.322180    0.049909
 C         -9.051960    0.898930    0.001066
 C         -9.551432    2.199532   -0.028114
 C        -10.944578    2.505913   -0.012722
 N        -12.069591    2.812727   -0.001966
 C         -8.752316    3.380106   -0.076000
 N         -8.151866    4.379455   -0.115441
 H         -8.870648   -3.607135    0.133593
 H        -12.860048   -1.993949    0.141959
 H        -11.982226    0.314818    0.060371
 H         -6.742728    2.361287   -0.084408
 C          1.451752   -3.475106   -1.028508
 H          2.253148   -4.219486   -0.969962
 H          0.497790   -4.006018   -0.986729
 H          1.532546   -2.963014   -1.992559
 C          1.352443   -3.229361    1.489964
 H          1.470123   -2.553211    2.342547
 H          0.345349   -3.655220    1.518524
 H          2.079291   -4.042437    1.592659
 C         -1.451729    3.475136    1.028229
 H         -0.497760    4.006033    0.986422
 H         -2.253115    4.219525    0.969660
 H         -1.532520    2.963082    1.992300
 C         -1.352460    3.229304   -1.490236
 H         -2.079298    4.042387   -1.592947
 H         -0.345361    3.655148   -1.518826
 H         -1.470163    2.553127   -2.342795
 O          1.494616    2.385406    0.090770
 O         -1.494624   -2.385417   -0.090997
 C          2.012905    2.755961    1.384597
 H          1.196713    2.994155    2.073800
 H          2.629690    1.960060    1.812218
 H          2.628107    3.640853    1.216610
 C         -2.012937   -2.755965   -1.384817
 H         -2.629737   -1.960066   -1.812420
 H         -1.196761   -2.994151   -2.074040
 H         -2.628132   -3.640862   -1.216824
 F        -11.440146   -4.143414    0.186248
 F         11.440184    4.143465   -0.184373
        88
S1: Total Energy = -3361.76148830
 C          5.151683   -1.068319    0.066419
 C          4.248023   -2.162798    0.111309
 C          2.919643   -1.778701    0.121031
 C          2.757498   -0.379915    0.094435
 C          1.380432   -0.040580    0.086021
 C          0.633881   -1.269841    0.038471
 C         -0.740250   -1.234992   -0.070794
 S          4.265984    0.478710    0.030895
 C          1.574860   -2.481735    0.133691
 H          4.608290   -3.185768    0.129709
 C         -5.151690    1.068326   -0.066436
 C         -4.248032    2.162805   -0.111359
 C         -2.919650    1.778709   -0.121036
 C         -2.757503    0.379925   -0.094398
 C         -1.380437    0.040593   -0.085972
 C         -0.633885    1.269854   -0.038425
 C          0.740246    1.235003    0.070844
 S         -4.265988   -0.478699   -0.030825
 C         -1.574867    2.481746   -0.133694
 H         -4.608300    3.185774   -0.129813
 C          6.547985   -1.299704    0.050215
 C          7.664454   -0.474469    0.009136
 C          7.645515    1.006772   -0.037241
 O          6.663902    1.743084   -0.044824
 C          9.056083    1.452864   -0.074057
 C          9.529430    2.753720   -0.122231
 C         10.913093    2.910313   -0.148332
 C         11.786148    1.823263   -0.127314
 C         11.285961    0.519036   -0.078509
 C          9.898487    0.323710   -0.051514
 C          9.060600   -0.898187    0.000931
 C          9.562968   -2.200038    0.036051
 C         10.955641   -2.503898    0.018157
 N         12.082175   -2.807465    0.005286
 C          8.765295   -3.379634    0.094537
 N          8.161941   -4.377702    0.143197
 H          8.860457    3.607285   -0.138976
 H         12.855145    2.006461   -0.149309
 H         11.985006   -0.305585   -0.063053
 H          6.752415   -2.363560    0.077395
 C         -6.547993    1.299707   -0.050285
 C         -7.664460    0.474471   -0.009175
 C         -7.645515   -1.006767    0.037331
 O         -6.663899   -1.743074    0.044990
 C         -9.056081   -1.452860    0.074193
 C         -9.529422   -2.753713    0.122503
 C        -10.913084   -2.910310    0.148623
 C        -11.786144   -1.823265    0.127495
 C        -11.285963   -0.519042    0.078555
 C         -9.898490   -0.323713    0.051537
 C         -9.060608    0.898182   -0.001038
 C         -9.562982    2.200026   -0.036320
 C        -10.955656    2.503883   -0.018451
 N        -12.082191    2.807446   -0.005606
 C         -8.765314    3.379618   -0.094974
 N         -8.161965    4.377682   -0.143767
 H         -8.860445   -3.607274    0.139334
 H        -12.855140   -2.006465    0.149512
 H        -11.985012    0.305575    0.063017
 H         -6.752427    2.363560   -0.077545
 C          1.455774   -3.460925   -1.054306
 H          2.257526   -4.205326   -1.002147
 H          0.502304   -3.993122   -1.018055
 H          1.536867   -2.939677   -2.013389
 C          1.351600   -3.238685    1.466642
 H          1.467255   -2.570499    2.325716
 H          0.344795   -3.665538    1.488849
 H          2.078497   -4.052390    1.563107
 C         -1.455810    3.460975    1.054275
 H         -0.502352    3.993193    1.018017
 H         -2.257577    4.205359    1.002084
 H         -1.536904    2.939755    2.013373
 C         -1.351584    3.238654   -1.466663
 H         -2.078474    4.052362   -1.563160
 H         -0.344775    3.665497   -1.488869
 H         -1.467233    2.570444   -2.325719
 O          1.492089    2.382563    0.102444
 O         -1.492080   -2.382560   -0.102394
 C          2.015656    2.749218    1.396020
 H          1.201576    2.982493    2.089195
 H          2.636169    1.953048    1.817339
 H          2.627601    3.636258    1.228267
 C         -2.015560   -2.749271   -1.395990
 H         -2.636040   -1.953122   -1.817394
 H         -1.201430   -2.982581   -2.089095
 H         -2.627518   -3.636303   -1.228242
 F        -11.428727   -4.151819    0.195473
 F         11.428741    4.151825   -0.195050
