        82
S0: Total Energy = -3587.70115380
 C          5.316564   -1.183406    0.032484
 C          4.622735   -2.394643    0.088079
 C          2.812478   -0.918123    0.016162
 C          1.434870   -0.454264    0.007967
 C          0.366320   -1.402669    0.012719
 C         -0.937225   -0.916069    0.014292
 S          4.182774    0.164609   -0.035234
 H          5.119465   -3.357164    0.136594
 H         -1.760029   -1.627954    0.021601
 C         -5.147373    1.131103    0.008527
 C         -4.462731    2.352411    0.031151
 C         -3.061101    2.260200    0.032406
 C         -2.640123    0.921713    0.011224
 C         -1.264390    0.456882    0.009144
 C          1.134070    0.915989    0.002481
 S         -3.986963   -0.195150   -0.013258
 H         -5.008642    3.291451    0.047102
 H          1.919532    1.665027    0.002735
 C          6.739917   -1.172216    0.036096
 C          7.690772   -0.176306   -0.006823
 C          7.419913    1.279509   -0.078643
 O          6.324886    1.831761   -0.111885
 C          8.731990    1.959423   -0.103766
 C          8.985241    3.322980   -0.167341
 C         10.316733    3.743868   -0.178789
 C         11.351380    2.801338   -0.126801
 C         11.091214    1.428570   -0.062814
 C          9.759083    0.998324   -0.051204
 C          9.148074   -0.354843    0.010298
 C          9.865157   -1.537885    0.072124
 C         11.292777   -1.597944    0.081729
 N         12.452593   -1.709502    0.092360
 C          9.280813   -2.840123    0.133695
 N          8.858525   -3.925272    0.185529
 H          8.161143    4.028653   -0.206247
 H         10.553607    4.802445   -0.227687
 H         12.383285    3.139508   -0.136004
 H         11.921049    0.736537   -0.024057
 H          7.117974   -2.187280    0.085254
 C         -6.568720    1.104540    0.008720
 C         -7.510114    0.098277   -0.010532
 C         -7.225950   -1.356673   -0.051024
 O         -6.127139   -1.902345   -0.063995
 C         -8.532700   -2.047415   -0.075776
 C         -8.774519   -3.413845   -0.118420
 C        -10.102411   -3.845774   -0.135959
 C        -11.144966   -2.910930   -0.110578
 C        -10.896344   -1.535200   -0.067066
 C         -9.567872   -1.094060   -0.049358
 C         -8.968099    0.264783   -0.003386
 C         -9.695875    1.442604    0.042772
 C        -11.123824    1.491227    0.042748
 N        -12.284564    1.593719    0.044583
 C         -9.122040    2.749619    0.098900
 N         -8.706116    3.837517    0.146547
 H         -7.944519   -4.113416   -0.137126
 H        -10.330372   -4.906915   -0.169217
 H        -12.173989   -3.257592   -0.124786
 H        -11.731970   -0.849305   -0.048812
 H         -6.957318    2.116645    0.028032
 C          0.211603   -4.077151   -1.599590
 H          0.516486   -5.130310   -1.603967
 H         -0.875929   -4.044070   -1.737740
 H          0.675949   -3.583975   -2.460525
 C         -0.003781   -4.134830    1.495900
 H          0.323919   -3.666940    2.430369
 H         -1.100216   -4.121465    1.476553
 H          0.314518   -5.183907    1.509324
 C         -1.787120    4.613110    1.650103
 H         -0.942380    5.311535    1.672491
 H         -2.708185    5.201210    1.743832
 H         -1.712695    3.959101    2.525507
 C         -1.844924    4.730355   -1.450710
 H         -2.767107    5.324098   -1.462606
 H         -0.999885    5.428759   -1.452652
 H         -1.806685    4.144774   -2.375398
 C          3.227293   -2.254658    0.077519
 C         -0.179555    1.379296    0.002772
 O         -0.345838    2.720726   -0.005391
 O          2.410503   -3.328739    0.134251
Si         -1.787758    3.624060    0.059165
Si          0.710204   -3.248333    0.007102
        82
T1: Total Energy = -3587.65446959
 C          5.304515   -1.194875    0.005191
 C          4.594164   -2.417324    0.024752
 C          2.781277   -0.910006   -0.018710
 C          1.443856   -0.455597   -0.028621
 C          0.349857   -1.405523   -0.021576
 C         -0.937911   -0.918985   -0.020969
 S          4.174867    0.175008   -0.032022
 H          5.092083   -3.379371    0.049150
 H         -1.766987   -1.622614   -0.012618
 C         -5.131450    1.130561   -0.007190
 C         -4.435544    2.364927   -0.002803
 C         -3.049269    2.275455   -0.010869
 C         -2.614683    0.924337   -0.021451
 C         -1.267211    0.471785   -0.027835
 C          1.137828    0.932962   -0.041382
 S         -3.978526   -0.198852   -0.023023
 H         -4.986224    3.300978    0.007213
 H          1.930028    1.674254   -0.049255
 C          6.713352   -1.188665    0.017416
 C          7.676083   -0.178201    0.005799
 C          7.406478    1.282612   -0.031233
 O          6.311413    1.835843   -0.055718
 C          8.717662    1.963817   -0.033953
 C          8.973995    3.326725   -0.063487
 C         10.308090    3.745387   -0.059334
 C         11.336735    2.798000   -0.025958
 C         11.071368    1.422475    0.003876
 C          9.739810    0.996690   -0.000252
 C          9.117452   -0.355509    0.025802
 C          9.836871   -1.551142    0.063762
 C         11.261550   -1.611656    0.078895
 N         12.422509   -1.723702    0.092593
 C          9.256907   -2.853444    0.092619
 N          8.843479   -3.944272    0.117618
 H          8.151871    4.035523   -0.088852
 H         10.548212    4.804106   -0.081812
 H         12.370458    3.131292   -0.022882
 H         11.899139    0.727303    0.029204
 H          7.096253   -2.201734    0.041912
 C         -6.545110    1.110511    0.004041
 C         -7.492675    0.096844    0.003920
 C         -7.207170   -1.359492   -0.022760
 O         -6.106360   -1.901961   -0.039466
 C         -8.511953   -2.053282   -0.027363
 C         -8.753437   -3.419548   -0.051895
 C        -10.082149   -3.852414   -0.051991
 C        -11.122984   -2.916956   -0.027655
 C        -10.873692   -1.539535   -0.002426
 C         -9.546154   -1.098622   -0.002262
 C         -8.942767    0.260606    0.022134
 C         -9.672357    1.443878    0.060622
 C        -11.098862    1.491225    0.072315
 N        -12.260254    1.592322    0.082912
 C         -9.100953    2.751147    0.096310
 N         -8.688688    3.841663    0.127500
 H         -7.923594   -4.119402   -0.070308
 H        -10.310284   -4.913843   -0.070877
 H        -12.152449   -3.262831   -0.028171
 H        -11.709233   -0.853507    0.015796
 H         -6.935280    2.121500    0.014853
 C          0.133552   -4.099374   -1.594339
 H          0.450450   -5.148701   -1.598613
 H         -0.958685   -4.079170   -1.688050
 H          0.558774   -3.609311   -2.476593
 C          0.045483   -4.107684    1.520652
 H          0.422228   -3.624062    2.428098
 H         -1.050373   -4.085649    1.553755
 H          0.358923   -5.157894    1.536184
 C         -1.776177    4.643806    1.578194
 H         -0.929484    5.339886    1.594859
 H         -2.696087    5.234545    1.663841
 H         -1.704732    3.997500    2.459401
 C         -1.837455    4.722156   -1.530195
 H         -2.759667    5.315456   -1.547112
 H         -0.991946    5.419680   -1.545391
 H         -1.802672    4.121920   -2.445438
 C          3.217482   -2.278539    0.011585
 C         -0.159622    1.398285   -0.040754
 O         -0.334513    2.736158   -0.055869
 O          2.394797   -3.334521    0.030382
Si         -1.775283    3.642059   -0.003214
Si          0.684363   -3.253307   -0.017522
        82
S1: Total Energy = -3587.63499609
 C          5.302762   -1.194772    0.009081
 C          4.603725   -2.407996    0.034727
 C          2.789344   -0.910084   -0.021459
 C          1.441069   -0.448924   -0.033108
 C          0.352521   -1.399587   -0.030753
 C         -0.939832   -0.914317   -0.030399
 S          4.176843    0.169893   -0.039382
 H          5.097827   -3.371885    0.066763
 H         -1.767431   -1.619555   -0.025643
 C         -5.135388    1.136032   -0.008218
 C         -4.443371    2.366782    0.000801
 C         -3.052068    2.275803   -0.008929
 C         -2.620493    0.927938   -0.025092
 C         -1.268026    0.471839   -0.032763
 C          1.138911    0.933005   -0.041436
 S         -3.982226   -0.193936   -0.031250
 H         -4.992545    3.303490    0.015502
 H          1.929433    1.676129   -0.044032
 C          6.726370   -1.187409    0.025812
 C          7.679170   -0.184999    0.008906
 C          7.405348    1.275844   -0.045669
 O          6.307533    1.823094   -0.078706
 C          8.713665    1.958584   -0.054211
 C          8.965750    3.321998   -0.100631
 C         10.298166    3.745405   -0.098966
 C         11.330856    2.801353   -0.051090
 C         11.071653    1.426338   -0.004116
 C          9.740260    0.993400   -0.005667
 C          9.130325   -0.357347    0.036873
 C          9.850079   -1.550570    0.096024
 C         11.274621   -1.609599    0.117387
 N         12.436089   -1.718050    0.136990
 C          9.268157   -2.850938    0.144167
 N          8.846912   -3.938664    0.185607
 H          8.141209    4.027489   -0.136849
 H         10.534881    4.804499   -0.134478
 H         12.363124    3.139238   -0.050144
 H         11.901703    0.734327    0.031755
 H          7.105094   -2.202191    0.059618
 C         -6.554315    1.112055    0.006538
 C         -7.498096    0.097430    0.003492
 C         -7.207721   -1.358884   -0.035369
 O         -6.104480   -1.896930   -0.061321
 C         -8.509508   -2.056642   -0.039370
 C         -8.747354   -3.422739   -0.073164
 C        -10.075468   -3.860254   -0.070001
 C        -11.117938   -2.927008   -0.033196
 C        -10.872770   -1.548780    0.001281
 C         -9.546144   -1.102441   -0.001848
 C         -8.948778    0.255395    0.029566
 C         -9.682256    1.441298    0.080471
 C        -11.107225    1.485436    0.099563
 N        -12.269817    1.582112    0.116742
 C         -9.113823    2.747752    0.122835
 N         -8.702059    3.839357    0.159625
 H         -7.915516   -4.120052   -0.101029
 H        -10.300884   -4.922128   -0.095893
 H        -12.146662   -3.275538   -0.031154
 H        -11.709945   -0.864984    0.028866
 H         -6.945940    2.122404    0.024574
 C          0.163266   -4.081608   -1.627123
 H          0.477261   -5.131774   -1.631967
 H         -0.927024   -4.056971   -1.739924
 H          0.605955   -3.587002   -2.498120
 C          0.024206   -4.114628    1.486242
 H          0.384753   -3.638209    2.403906
 H         -1.072076   -4.094449    1.500378
 H          0.339031   -5.164447    1.497737
 C         -1.774967    4.640580    1.585350
 H         -0.926671    5.334655    1.601177
 H         -2.693621    5.232955    1.672697
 H         -1.704020    3.992676    2.465336
 C         -1.832615    4.723230   -1.523976
 H         -2.752680    5.319700   -1.542471
 H         -0.984411    5.417501   -1.535249
 H         -1.797643    4.123813   -2.439679
 C          3.213605   -2.265786    0.016837
 C         -0.163083    1.398742   -0.040768
 O         -0.336346    2.733511   -0.049590
 O          2.397991   -3.327856    0.041420
Si         -1.779886    3.641649    0.002255
Si          0.687882   -3.247963   -0.034435
