       126
S0: Total Energy = -4807.33274003
 C          7.160314    1.228863    0.051348
 C          6.240110    2.291314    0.061626
 C          4.916402    1.859603    0.038822
 C          4.777125    0.454944    0.008890
 C          3.427236    0.043988    0.003402
 C          2.566606    1.128825    0.021060
 C          1.187919    0.700147    0.009908
 C          1.199947   -0.719394   -0.040500
 C          0.010072   -1.429243   -0.047119
 S          6.321581   -0.343543    0.007772
 S          3.359963    2.683066    0.046581
 C          2.645151   -1.269519   -0.057699
 H          6.559634    3.327184    0.085513
 H          0.000870   -2.514410   -0.078461
 C         -7.160310   -1.228854   -0.051350
 C         -6.240102   -2.291301   -0.061623
 C         -4.916396   -1.859587   -0.038812
 C         -4.777123   -0.454928   -0.008877
 C         -3.427234   -0.043970   -0.003382
 C         -2.566603   -1.128806   -0.021038
 C         -1.187916   -0.700129   -0.009879
 C         -1.199944    0.719412    0.040529
 C         -0.010068    1.429261    0.047147
 S         -6.321581    0.343554   -0.007762
 S         -3.359956   -2.683048   -0.046570
 C         -2.645147    1.269537    0.057725
 H         -6.559623   -3.327173   -0.085513
 H         -0.000866    2.514428    0.078490
 C          8.551844    1.505022    0.074095
 C          9.689744    0.723293    0.071941
 C          9.724433   -0.757018    0.035304
 O          8.768524   -1.525975    0.006968
 C         11.149264   -1.152725    0.038674
 C         11.678662   -2.435546    0.010375
 C         13.068511   -2.573077    0.019548
 C         13.885662   -1.436528    0.056488
 C         13.347149   -0.145688    0.085338
 C         11.955107    0.000365    0.076349
 C         11.075580    1.199131    0.100959
 C         11.534323    2.506439    0.146434
 C         12.918484    2.859116    0.169966
 N         14.030602    3.206825    0.190665
 C         10.693308    3.660528    0.177668
 N         10.052593    4.634082    0.205305
 H          8.717616    2.576245    0.099224
 H         11.017553   -3.296262   -0.017908
 H         13.519133   -3.560873   -0.002005
 H         14.965226   -1.554370    0.063097
 H         14.015739    0.703627    0.113365
 C         -8.551839   -1.505021   -0.074107
 C         -9.689748   -0.723304   -0.071958
 C         -9.724460    0.757007   -0.035340
 O         -8.768562    1.525978   -0.006995
 C        -11.149296    1.152693   -0.038756
 C        -11.678713    2.435508   -0.010498
 C        -13.068563    2.573020   -0.019716
 C        -13.885697    1.436459   -0.056661
 C        -13.347165    0.145625   -0.085468
 C        -11.955122   -0.000408   -0.076432
 C        -11.075577   -1.199162   -0.100988
 C        -11.534300   -2.506478   -0.146416
 C        -12.918456   -2.859175   -0.169969
 N        -14.030569   -3.206899   -0.190682
 C        -10.693268   -3.660557   -0.177570
 N        -10.052537   -4.634103   -0.205121
 H         -8.717601   -2.576245   -0.099242
 H        -11.017616    3.296234    0.017790
 H        -13.519199    3.560810    0.001803
 H        -14.965263    1.554285   -0.063307
 H        -14.015743   -0.703699   -0.113501
 C          3.006721   -1.988508   -1.377571
 C          4.143632   -2.808202   -1.445570
 C          4.536022   -3.394099   -2.647820
 C          3.811225   -3.187512   -3.828911
 C          2.683202   -2.361885   -3.759563
 C          2.286867   -1.771270   -2.558867
 H          4.726481   -3.002400   -0.550329
 H          5.423775   -4.022195   -2.665413
 H          2.100899   -2.173870   -4.658872
 H          1.408868   -1.133775   -2.551809
 C          2.845167   -2.160969    1.185765
 C          2.472504   -3.513475    1.159579
 C          2.568669   -4.306453    2.301379
 C          3.043157   -3.784939    3.512684
 C          3.408122   -2.434287    3.536767
 C          3.310550   -1.635049    2.396734
 H          2.113963   -3.957984    0.236017
 H          2.271667   -5.351545    2.247871
 H          3.776897   -1.995312    4.461055
 H          3.597441   -0.590026    2.460146
 C         -2.845159    2.160992   -1.185735
 C         -2.472511    3.513502   -1.159539
 C         -2.568673    4.306484   -2.301336
 C         -3.043142    3.784970   -3.512649
 C         -3.408093    2.434315   -3.536742
 C         -3.310525    1.635073   -2.396711
 H         -2.113984    3.958011   -0.235971
 H         -2.271683    5.351579   -2.247820
 H         -3.776855    1.995340   -4.461035
 H         -3.597405    0.590047   -2.460131
 C         -3.006722    1.988522    1.377596
 C         -4.143628    2.808224    1.445587
 C         -4.536023    3.394123    2.647835
 C         -3.811236    3.187531    3.828931
 C         -2.683218    2.361897    3.759591
 C         -2.286877    1.771281    2.558897
 H         -4.726468    3.002428    0.550342
 H         -5.423772    4.022224    2.665421
 H         -2.100923    2.173878    4.658904
 H         -1.408882    1.133781    2.551846
 C          4.220146   -3.851325   -5.122660
 H          3.804244   -4.864999   -5.197910
 H          3.863943   -3.288198   -5.991446
 C          3.181163   -4.657541    4.737874
 H          3.127577   -4.066784    5.658146
 H          2.396661   -5.420948    4.776342
 C         -3.181141    4.657579   -4.737835
 H         -2.396550    5.420890   -4.776373
 H         -3.127701    4.066808   -5.658106
 C         -4.220163    3.851346    5.122678
 H         -3.863992    3.288202    5.991466
 H         -3.804234    4.865007    5.197943
 H          5.308953   -3.942696   -5.198584
 H          4.145271   -5.183325    4.743585
 H         -4.145185    5.183482   -4.743472
 H         -5.308968    3.942746    5.198582
       126
T1: Total Energy = -4807.28683734
 C          7.139608    1.233991    0.042851
 C          6.202038    2.301897    0.050657
 C          4.892268    1.867098    0.026745
 C          4.751677    0.449311   -0.002060
 C          3.425021    0.038324   -0.009450
 C          2.535030    1.135866    0.005783
 C          1.191584    0.707973    0.001579
 C          1.200196   -0.731983   -0.042259
 C          0.024265   -1.438081   -0.039575
 S          6.312771   -0.343951   -0.001238
 S          3.332693    2.695542    0.030951
 C          2.647560   -1.277193   -0.065621
 H          6.520699    3.337571    0.074216
 H          0.014106   -2.523170   -0.064849
 C         -7.139607   -1.233993   -0.042874
 C         -6.202037   -2.301898   -0.050687
 C         -4.892267   -1.867099   -0.026785
 C         -4.751676   -0.449311    0.002019
 C         -3.425020   -0.038323    0.009408
 C         -2.535029   -1.135866   -0.005828
 C         -1.191584   -0.707973   -0.001618
 C         -1.200195    0.731983    0.042222
 C         -0.024265    1.438081    0.039537
 S         -6.312771    0.343951    0.001204
 S         -3.332692   -2.695542   -0.030996
 C         -2.647560    1.277193    0.065583
 H         -6.520698   -3.337572   -0.074238
 H         -0.014105    2.523170    0.064810
 C          8.522566    1.515203    0.068769
 C          9.669603    0.727864    0.070174
 C          9.704035   -0.754017    0.033137
 O          8.745643   -1.520565    0.000606
 C         11.127559   -1.152834    0.041832
 C         11.657086   -2.434640    0.015373
 C         13.048250   -2.572107    0.029944
 C         13.862304   -1.434933    0.070244
 C         13.321845   -0.142985    0.097204
 C         11.931007    0.002091    0.082845
 C         11.046557    1.199049    0.103984
 C         11.505807    2.513653    0.151068
 C         12.888166    2.865202    0.179405
 N         14.001315    3.212087    0.204029
 C         10.667648    3.667591    0.179233
 N         10.031102    4.644933    0.204658
 H          8.689452    2.585609    0.093403
 H         10.996636   -3.295884   -0.015644
 H         13.499547   -3.559604    0.009990
 H         14.942193   -1.550614    0.081104
 H         13.989792    0.706806    0.127971
 C         -8.522566   -1.515205   -0.068768
 C         -9.669603   -0.727866   -0.070154
 C         -9.704035    0.754016   -0.033137
 O         -8.745642    1.520564   -0.000639
 C        -11.127559    1.152833   -0.041805
 C        -11.657085    2.434639   -0.015350
 C        -13.048249    2.572105   -0.029890
 C        -13.862304    1.434931   -0.070155
 C        -13.321846    0.142982   -0.097109
 C        -11.931008   -0.002094   -0.082781
 C        -11.046558   -1.199052   -0.103920
 C        -11.505809   -2.513657   -0.150963
 C        -12.888169   -2.865206   -0.179266
 N        -14.001318   -3.212092   -0.203861
 C        -10.667651   -3.667595   -0.179114
 N        -10.031105   -4.644938   -0.204527
 H         -8.689452   -2.585611   -0.093391
 H        -10.996635    3.295883    0.015639
 H        -13.499546    3.559602   -0.009938
 H        -14.942194    1.550611   -0.080991
 H        -13.989794   -0.706810   -0.127848
 C          3.007447   -1.987794   -1.390459
 C          4.141353   -2.811059   -1.464544
 C          4.531220   -3.387379   -2.671946
 C          3.807487   -3.166830   -3.851502
 C          2.683241   -2.336615   -3.775611
 C          2.289726   -1.754546   -2.569977
 H          4.723532   -3.015135   -0.571231
 H          5.416209   -4.018986   -2.695126
 H          2.102725   -2.137291   -4.673502
 H          1.415174   -1.112290   -2.558374
 C          2.856566   -2.167369    1.176613
 C          2.497349   -3.523388    1.148592
 C          2.599257   -4.315092    2.290620
 C          3.066108   -3.788686    3.502948
 C          3.416772   -2.434234    3.528412
 C          3.312583   -1.635754    2.388554
 H          2.145329   -3.971417    0.224290
 H          2.313388   -5.363150    2.236473
 H          3.778760   -1.991591    4.453502
 H          3.588702   -0.587849    2.453630
 C         -2.856564    2.167373   -1.176649
 C         -2.497346    3.523391   -1.148623
 C         -2.599253    4.315099   -2.290648
 C         -3.066105    3.788697   -3.502978
 C         -3.416771    2.434247   -3.528447
 C         -3.312583    1.635763   -2.388591
 H         -2.145326    3.971417   -0.224320
 H         -2.313383    5.363157   -2.236497
 H         -3.778760    1.991608   -4.453537
 H         -3.588703    0.587859   -2.453670
 C         -3.007448    1.987792    1.390422
 C         -4.141347    2.811067    1.464503
 C         -4.531215    3.387387    2.671905
 C         -3.807491    3.166826    3.851465
 C         -2.683253    2.336600    3.775577
 C         -2.289737    1.754532    2.569943
 H         -4.723517    3.015153    0.571188
 H         -5.416198    4.019002    2.695083
 H         -2.102745    2.137267    4.673471
 H         -1.415190    1.112268    2.558343
 C          4.214538   -3.820250   -5.150859
 H          3.795536   -4.831960   -5.234222
 H          3.859810   -3.248709   -6.014648
 C          3.210618   -4.660040    4.728062
 H          3.149653   -4.070126    5.648339
 H          2.434010   -5.431482    4.764734
 C         -3.210609    4.660058   -4.728088
 H         -2.433912    5.431406   -4.764830
 H         -3.149790    4.070129   -5.648364
 C         -4.214544    3.820245    5.150822
 H         -3.859846    3.248684    6.014611
 H         -3.795511    4.831941    5.234202
 H          5.303010   -3.914191   -5.227330
 H          4.180125   -5.175648    4.734697
 H         -4.180054    5.175785   -4.734649
 H         -5.303013    3.914218    5.227277
       126
S1: Total Energy = -4807.26893308
 C          7.143142    1.233216    0.041579
 C          6.214717    2.297214    0.049118
 C          4.896891    1.861185    0.025887
 C          4.758625    0.450018   -0.001461
 C          3.422891    0.039041   -0.007834
 C          2.542189    1.133464    0.006639
 C          1.190172    0.706263    0.002803
 C          1.199327   -0.730296   -0.041506
 C          0.020028   -1.437209   -0.040384
 S          6.315708   -0.343556   -0.001014
 S          3.339820    2.689947    0.030193
 C          2.645644   -1.275641   -0.062372
 H          6.532199    3.333272    0.071978
 H          0.009594   -2.522172   -0.066682
 C         -7.143143   -1.233214   -0.041574
 C         -6.214718   -2.297212   -0.049110
 C         -4.896892   -1.861184   -0.025880
 C         -4.758626   -0.450016    0.001466
 C         -3.422891   -0.039040    0.007839
 C         -2.542190   -1.133463   -0.006633
 C         -1.190173   -0.706262   -0.002797
 C         -1.199328    0.730297    0.041511
 C         -0.020029    1.437210    0.040390
 S         -6.315708    0.343558    0.001017
 S         -3.339821   -2.689946   -0.030185
 C         -2.645644    1.275642    0.062375
 H         -6.532201   -3.333271   -0.071969
 H         -0.009595    2.522173    0.066688
 C          8.534930    1.513030    0.067693
 C          9.675807    0.727550    0.069185
 C          9.707647   -0.755645    0.029828
 O          8.747194   -1.519618   -0.004019
 C         11.129657   -1.156000    0.037802
 C         11.656850   -2.438494    0.008950
 C         13.048030   -2.579138    0.023280
 C         13.864103   -1.442860    0.065743
 C         13.327027   -0.150039    0.095161
 C         11.935252   -0.000526    0.081079
 C         11.058105    1.196233    0.104446
 C         11.518047    2.512207    0.154869
 C         12.899840    2.862994    0.184580
 N         14.013998    3.208264    0.210578
 C         10.680102    3.665080    0.185625
 N         10.041119    4.641504    0.213050
 H          8.701122    2.583705    0.092802
 H         10.994543   -3.298303   -0.023644
 H         13.497547   -3.567400    0.001460
 H         14.943818   -1.560968    0.076395
 H         13.996483    0.698539    0.127416
 C         -8.534931   -1.513027   -0.067690
 C         -9.675808   -0.727547   -0.069186
 C         -9.707648    0.755648   -0.029837
 O         -8.747195    1.519622    0.004010
 C        -11.129657    1.156003   -0.037817
 C        -11.656850    2.438497   -0.008974
 C        -13.048030    2.579142   -0.023309
 C        -13.864103    1.442864   -0.065767
 C        -13.327028    0.150043   -0.095176
 C        -11.935252    0.000529   -0.081089
 C        -11.058106   -1.196230   -0.104447
 C        -11.518047   -2.512204   -0.154862
 C        -12.899840   -2.862991   -0.184575
 N        -14.013999   -3.208263   -0.210573
 C        -10.680102   -3.665078   -0.185608
 N        -10.041118   -4.641502   -0.213029
 H         -8.701124   -2.583703   -0.092795
 H        -10.994543    3.298307    0.023617
 H        -13.497547    3.567404   -0.001497
 H        -14.943818    1.560972   -0.076424
 H        -13.996483   -0.698535   -0.127429
 C          3.007535   -1.987408   -1.385618
 C          4.137495   -2.816435   -1.455667
 C          4.528934   -3.393691   -2.662024
 C          3.810798   -3.168509   -3.844288
 C          2.690721   -2.332148   -3.772355
 C          2.295950   -1.748668   -2.568017
 H          4.715280   -3.023920   -0.560333
 H          5.410753   -4.029746   -2.682394
 H          2.115017   -2.128893   -4.672410
 H          1.425538   -1.100645   -2.559691
 C          2.850169   -2.162569    1.182758
 C          2.492638   -3.519091    1.157357
 C          2.591339   -4.306928    2.302284
 C          3.053225   -3.776029    3.514667
 C          3.402149   -2.420998    3.537304
 C          3.300871   -1.626225    2.394730
 H          2.144732   -3.970519    0.233150
 H          2.307014   -5.355495    2.250511
 H          3.760247   -1.975107    4.462303
 H          3.575034   -0.577632    2.457396
 C         -2.850169    2.162567   -1.182757
 C         -2.492613    3.519084   -1.157367
 C         -2.591313    4.306916   -2.302297
 C         -3.053222    3.776018   -3.514672
 C         -3.402169    2.420994   -3.537299
 C         -3.300893    1.626225   -2.394721
 H         -2.144689    3.970511   -0.233166
 H         -2.306968    5.355478   -2.250532
 H         -3.760285    1.975105   -4.462291
 H         -3.575074    0.577636   -2.457378
 C         -3.007537    1.987410    1.385620
 C         -4.137510    2.816418    1.455676
 C         -4.528949    3.393671    2.662034
 C         -3.810799    3.168506    3.844293
 C         -2.690709    2.332163    3.772354
 C         -2.295939    1.748685    2.568015
 H         -4.715307    3.023889    0.560346
 H         -5.410779    4.029712    2.682409
 H         -2.114995    2.128921    4.672405
 H         -1.425517    1.100676    2.559684
 C          4.219507   -3.823095   -5.142387
 H          3.795565   -4.832581   -5.227737
 H          3.870958   -3.249306   -6.007169
 C          3.194366   -4.643342    4.742928
 H          3.129679   -4.050634    5.661125
 H          2.418556   -5.415573    4.779244
 C         -3.194357    4.643330   -4.742935
 H         -2.418445    5.415455   -4.779336
 H         -3.129834    4.050597   -5.661128
 C         -4.219508    3.823091    5.142393
 H         -3.870963    3.249297    6.007174
 H         -3.795561    4.832574    5.227747
 H          5.307740   -3.922644   -5.214628
 H          4.164458   -5.157737    4.754303
 H         -4.164379    5.157859   -4.754230
 H         -5.307740    3.922644    5.214633
