        86
S0: Total Energy = -3883.13447185
 C          7.216813    0.822389   -0.004394
 C          6.362347    1.939157   -0.008660
 C          5.014093    1.591230   -0.007548
 C          4.788995    0.197542   -0.002301
 C          3.419678   -0.133730   -0.000896
 C          2.621874    0.999444   -0.004924
 C          1.221674    0.643889   -0.002653
 C          1.163505   -0.777972    0.003115
 C         -0.059213   -1.430636    0.006473
 S          6.281401   -0.696488    0.000973
 S          3.508161    2.505427   -0.010758
 C          2.569283   -1.392462    0.004616
 H          6.746524    2.953113   -0.012074
 H         -0.121172   -2.515805    0.010901
 C         -7.216813   -0.822384    0.004803
 C         -6.362339   -1.939146    0.009126
 C         -5.014087   -1.591207    0.008344
 C         -4.788998   -0.197517    0.003276
 C         -3.419683    0.133767    0.002096
 C         -2.621874   -0.999402    0.006151
 C         -1.221675   -0.643848    0.003988
 C         -1.163505    0.778011   -0.001759
 C          0.059212    1.430675   -0.005113
 S         -6.281413    0.696499   -0.000109
 S         -3.508150   -2.505394    0.011705
 C         -2.569289    1.392505   -0.003331
 H         -6.746508   -2.953106    0.012246
 H          0.121177    2.515844   -0.009573
 C          8.622291    1.011335   -0.003886
 C          9.709160    0.159536   -0.000596
 C          9.649695   -1.320065    0.000545
 O          8.646185   -2.026926    0.001941
 C         11.046431   -1.805634   -0.000778
 C         11.493621   -3.119713   -0.001300
 C         12.872132   -3.344626   -0.003107
 C         13.759663   -2.261622   -0.004353
 C         13.303919   -0.938916   -0.003658
 C         11.923934   -0.705321   -0.001791
 C         11.122259    0.547179   -0.000180
 C         11.663050    1.823599    0.002881
 C         13.066783    2.088560    0.002537
 N         14.198812    2.365419    0.002293
 C         10.896449    3.028760    0.007724
 N         10.317732    4.040780    0.011942
 H          8.854649    2.070374   -0.007044
 H         10.779771   -3.937718   -0.000367
 H         13.259271   -4.359202   -0.003607
 H         14.829664   -2.447322   -0.005905
 H         14.024950   -0.133168   -0.004750
 C         -8.622289   -1.011341    0.003620
 C         -9.709162   -0.159547    0.000117
 C         -9.649713    1.320055    0.000231
 O         -8.646212    2.026929   -0.000330
 C        -11.046456    1.805608    0.001765
 C        -11.493660    3.119681    0.003509
 C        -12.872173    3.344577    0.005311
 C        -13.759693    2.261563    0.005334
 C        -13.303934    0.938864    0.003384
 C        -11.923947    0.705285    0.001526
 C        -11.122256   -0.547204   -0.001302
 C        -11.663026   -1.823626   -0.006386
 C        -13.066754   -2.088612   -0.006713
 N        -14.198776   -2.365501   -0.007071
 C        -10.896398   -3.028762   -0.013101
 N        -10.317659   -4.040760   -0.018937
 H         -8.854643   -2.070382    0.006352
 H        -10.779819    3.937694    0.003509
 H        -13.259324    4.359148    0.006754
 H        -14.829695    2.447250    0.006905
 H        -14.024957    0.133107    0.003567
 C          2.813100   -2.246465   -1.260962
 C          2.815202   -2.236365    1.276507
 C         -2.815082    2.236432   -1.275232
 C         -2.813219    2.246443    1.262258
 H         -2.145691    3.114843    1.271671
 H         -3.844944    2.614576    1.284504
 H         -2.635573    1.664910    2.172166
 H         -2.638244    1.647910   -2.180791
 H         -3.847025    2.603861   -1.299078
 H         -2.148006    3.105034   -1.292185
 H          2.638554   -1.647807    2.182080
 H          2.148071   -3.104921    1.293582
 H          3.847125   -2.603862    1.300200
 H          3.844822   -2.614600   -1.283295
 H          2.145569   -3.114862   -1.270239
 H          2.635359   -1.664982   -2.170881
        86
T1: Total Energy = -3883.08875393
 C         -7.197238   -0.825098   -0.003334
 C         -6.326117   -1.948521   -0.006101
 C         -4.991377   -1.596361   -0.005386
 C         -4.763977   -0.189954   -0.002016
 C         -3.417227    0.141955   -0.001060
 C         -2.591756   -1.005428   -0.003628
 C         -1.226314   -0.649734   -0.002041
 C         -1.162668    0.791328    0.001797
 C          0.046505    1.439880    0.004202
 S         -6.273828    0.699877    0.000006
 S         -3.483187   -2.516062   -0.007454
 C         -2.570755    1.402445    0.002574
 H         -6.709287   -2.962365   -0.008238
 H          0.110869    2.524616    0.007149
 C          7.197241    0.825101    0.003684
 C          6.326121    1.948525    0.006568
 C          4.991380    1.596365    0.005958
 C          4.763980    0.189958    0.002587
 C          3.417229   -0.141950    0.001713
 C          2.591759    1.005433    0.004332
 C          1.226317    0.649740    0.002762
 C          1.162671   -0.791322   -0.001087
 C         -0.046502   -1.439875   -0.003484
 S          6.273830   -0.699873    0.000420
 S          3.483191    2.516066    0.008131
 C          2.570757   -1.402440   -0.001916
 H          6.709291    2.962368    0.008650
 H         -0.110866   -2.524611   -0.006441
 C         -8.594917   -1.019661   -0.002966
 C         -9.690397   -0.161712   -0.000725
 C         -9.630612    1.319730   -0.000323
 O         -8.624668    2.023962    0.000418
 C        -11.025816    1.808104   -0.000687
 C        -11.473193    3.121183   -0.000961
 C        -12.853038    3.345998   -0.001686
 C        -13.737605    2.262082   -0.002098
 C        -13.280061    0.938206   -0.001686
 C        -11.901129    0.705696   -0.000926
 C        -11.094587   -0.545224   -0.000057
 C        -11.636275   -1.829012    0.002186
 C        -13.038232   -2.093204    0.002222
 N        -14.171188   -2.369677    0.002265
 C        -10.872520   -3.033785    0.005442
 N        -10.298674   -4.049536    0.008266
 H         -8.828280   -2.077786   -0.004987
 H        -10.759949    3.939839   -0.000677
 H        -13.240901    4.360273   -0.001976
 H        -14.808101    2.445646   -0.002751
 H        -14.000526    0.131904   -0.002049
 C          8.594921    1.019662    0.003011
 C          9.690397    0.161710    0.000501
 C          9.630609   -1.319732    0.000682
 O          8.624664   -2.023962    0.000608
 C         11.025813   -1.808107    0.001218
 C         11.473188   -3.121186    0.002208
 C         12.853033   -3.346003    0.002932
 C         13.737601   -2.262089    0.002631
 C         13.280059   -0.938212    0.001488
 C         11.901128   -0.705701    0.000730
 C         11.094587    0.545220   -0.000805
 C         11.636273    1.829006   -0.004229
 C         13.038229    2.093199   -0.004655
 N         14.171185    2.369675   -0.005050
 C         10.872515    3.033773   -0.008549
 N         10.298664    4.049518   -0.012319
 H          8.828286    2.077787    0.004956
 H         10.759943   -3.939842    0.002451
 H         13.240894   -4.360278    0.003772
 H         14.808097   -2.445654    0.003302
 H         14.000526   -0.131911    0.001337
 C         -2.818211    2.253027   -1.264680
 C         -2.819940    2.246409    1.273883
 C          2.819899   -2.246380   -1.273248
 C          2.818254   -2.253046    1.265314
 H          2.152316   -3.122414    1.275131
 H          3.850682   -2.618220    1.286550
 H          2.639751   -1.671130    2.174694
 H          2.642037   -1.659872   -2.179798
 H          3.852552   -2.610885   -1.295262
 H          2.154445   -3.116021   -1.288231
 H         -2.642090    1.659925    2.180450
 H         -2.154499    3.116060    1.288861
 H         -3.852599    2.610900    1.295864
 H         -3.850635    2.618208   -1.285953
 H         -2.152266    3.122390   -1.274497
 H         -2.639686    1.671090   -2.174043
        86
S1: Total Energy = -3883.07057130
 C         -7.199915   -0.826136   -0.006366
 C         -6.337821   -1.944996   -0.012028
 C         -4.994888   -1.592085   -0.008872
 C         -4.770711   -0.191952   -0.000727
 C         -3.415121    0.140063    0.002417
 C         -2.598476   -1.003326   -0.002964
 C         -1.224671   -0.648119    0.001325
 C         -1.162196    0.789461    0.009917
 C          0.050278    1.438682    0.015394
 S         -6.276296    0.697658    0.003125
 S         -3.488924   -2.511191   -0.012484
 C         -2.569532    1.400520    0.011237
 H         -6.719980   -2.959213   -0.017976
 H          0.114842    2.523255    0.021824
 C          7.199953    0.826126    0.010312
 C          6.337853    1.944982    0.016562
 C          4.994929    1.592047    0.017104
 C          4.770755    0.191897    0.010925
 C          3.415171   -0.140134    0.009893
 C          2.598520    1.003257    0.015398
 C          1.224717    0.648043    0.012299
 C          1.162243   -0.789537    0.004036
 C         -0.050234   -1.438759   -0.001469
 S          6.276347   -0.697698    0.006032
 S          3.488960    2.511138    0.022361
 C          2.569577   -1.400596    0.002334
 H          6.720006    2.959216    0.019391
 H         -0.114798   -2.523331   -0.008012
 C         -8.606489   -1.019193   -0.008283
 C         -9.695749   -0.163648   -0.004094
 C         -9.633150    1.319047    0.002724
 O         -8.625105    2.020336    0.007313
 C        -11.026641    1.808818    0.003140
 C        -11.471662    3.122468    0.008265
 C        -12.851341    3.350389    0.007378
 C        -13.737917    2.267415    0.001475
 C        -13.283902    0.942839   -0.003568
 C        -11.904250    0.705917   -0.002710
 C        -11.105353   -0.544383   -0.006710
 C        -11.647759   -1.829598   -0.011331
 C        -13.049068   -2.093089   -0.014028
 N        -14.183048   -2.367584   -0.016474
 C        -10.884109   -3.033325   -0.013579
 N        -10.307162   -4.048044   -0.015488
 H         -8.838978   -2.077674   -0.014458
 H        -10.756654    3.939616    0.012775
 H        -13.237394    4.365332    0.011221
 H        -14.808080    2.453418    0.000769
 H        -14.005834    0.137833   -0.008046
 C          8.606512    1.019205    0.005195
 C          9.695747    0.163646   -0.000715
 C          9.633234   -1.319051    0.006408
 O          8.625234   -2.020402    0.011083
 C         11.026765   -1.808719    0.007951
 C         11.471881   -3.122323    0.015969
 C         12.851577   -3.350139    0.016427
 C         13.738079   -2.267115    0.008762
 C         13.283968   -0.942588    0.000269
 C         11.904301   -0.705771   -0.000149
 C         11.105304    0.544440   -0.009014
 C         11.647537    1.829617   -0.025960
 C         13.048813    2.093271   -0.030202
 N         14.182763    2.367872   -0.033975
 C         10.883675    3.033084   -0.043699
 N         10.306509    4.047562   -0.059055
 H          8.839008    2.077703    0.006306
 H         10.756932   -3.939513    0.021755
 H         13.237703   -4.365042    0.022751
 H         14.808255   -2.453039    0.009345
 H         14.005846   -0.137538   -0.005425
 C         -2.814977    2.255751   -1.253451
 C         -2.819975    2.240041    1.285412
 C          2.819255   -2.240872   -1.271490
 C          2.815770   -2.255088    1.267378
 H          2.150527   -3.125008    1.273639
 H          3.848342   -2.619703    1.288185
 H          2.636239   -1.676091    2.178367
 H          2.641071   -1.652061   -2.176430
 H          3.852312   -2.604037   -1.293974
 H          2.155047   -3.111377   -1.288777
 H         -2.642337    1.650697    2.190113
 H         -2.155796    3.110546    1.303621
 H         -3.853063    2.603162    1.307459
 H         -3.847520    2.620410   -1.274674
 H         -2.149708    3.125660   -1.258829
 H         -2.634922    1.677272   -2.164665
