        88
S0: Total Energy = -3612.28925483
 O          4.280065   -5.307370   -3.271590
 C          3.424721   -4.469020   -3.012451
 C          3.667900   -3.330984   -2.093951
 C          4.921023   -3.197236   -1.504660
 H          5.689198   -3.928502   -1.730832
 C          5.133517   -2.109987   -0.637495
 C          4.087757   -1.215675   -0.399213
 C          4.417376   -0.177141    0.481406
 C          5.726257   -0.224520    0.962592
 C          6.154684    0.762330    1.870704
 H          7.157913    0.787030    2.281646
 C          5.243407    1.739432    2.259929
 C          5.676387    2.779818    3.223750
 O          6.811715    2.828426    3.683180
 O          2.622510    4.657859    3.561178
 C          3.391559    3.790442    3.164628
 C          2.980402    2.746147    2.198790
 C          1.678480    2.701628    1.710754
 H          0.970140    3.446017    2.058274
 C          1.263529    1.725965    0.791218
 H          0.233510    1.752316    0.469316
 C          2.140296    0.744052    0.305191
 C          1.798795   -0.328486   -0.674887
 C          0.564243   -0.495379   -1.348035
 C          0.371465   -1.597083   -2.212887
 H         -0.582539   -1.704904   -2.718201
 C          1.351535   -2.545965   -2.463791
 C          1.086376   -3.674278   -3.386890
 O          0.004361   -3.829261   -3.939926
 N          2.151160   -4.565941   -3.595476
 C          2.607516   -2.405692   -1.847658
 C          2.808276   -1.311564   -0.971195
 C          3.470573    0.790524    0.842695
 C          3.900492    1.770843    1.770414
 N          4.724334    3.736302    3.608581
 O         -4.280722    5.307751   -3.270011
 C         -3.425318    4.469381   -3.011137
 C         -3.668312    3.331223   -2.092742
 C         -4.921328    3.197390   -1.503235
 H         -5.689552    3.928678   -1.729166
 C         -5.133635    2.110034   -0.636169
 C         -4.087836    1.215696   -0.398181
 C         -4.417284    0.177059    0.482374
 C         -5.726076    0.224368    0.963812
 C         -6.154325   -0.762586    1.871891
 H         -7.157474   -0.787341    2.283020
 C         -5.242962   -1.739716    2.260844
 C         -5.675753   -2.780202    3.224644
 O         -6.810997   -2.828869    3.684275
 O         -2.621791   -4.658232    3.561328
 C         -3.390926   -3.790788    3.165004
 C         -2.979958   -2.746386    2.199198
 C         -1.678123   -2.701790    1.710947
 H         -0.969705   -3.446193    2.058279
 C         -1.263353   -1.726030    0.791431
 H         -0.233388   -1.752329    0.469367
 C         -2.140222   -0.744095    0.305631
 C         -1.798921    0.328544   -0.674422
 C         -0.564514    0.495512   -1.347833
 C         -0.371903    1.597349   -2.212552
 H          0.581997    1.705236   -2.718049
 C         -1.352020    2.546266   -2.463125
 C         -1.087044    3.674699   -3.386128
 O         -0.005136    3.829760   -3.939352
 N         -2.151867    4.566392   -3.594385
 C         -2.607882    2.405903   -1.846765
 C         -2.808463    1.311661   -0.970400
 C         -3.470402   -0.790636    0.843379
 C         -3.900138   -1.771055    1.771079
 N         -4.723621   -3.736715    3.609201
 C          1.942876   -5.704148   -4.500390
 H          0.922530   -5.651534   -4.871414
 C          5.184402    4.753271    4.563154
 H          6.028947    5.301316    4.139720
 C         -1.943759    5.704723   -4.499183
 H         -2.105858    6.640106   -3.958991
 C         -5.183502   -4.753787    4.563756
 H         -4.352429   -5.426821    4.758257
 H         -5.509067   -4.273319    5.489315
 H         -6.028140   -5.301775    4.140436
 H         -0.923467    5.652190   -4.870367
 H         -2.654064    5.653235   -5.327431
 H          2.653060   -5.652574   -5.328736
 H          2.105025   -6.639609   -3.960346
 H          4.353364    5.426276    4.757900
 H          5.510164    4.272703    5.488591
 S          6.574370   -1.622526    0.275740
 S         -6.574341    1.622455    0.277278
        88
T1: Total Energy = -3612.23534324
 O         -3.805330   -5.572623    3.273994
 C         -3.018163   -4.685322    2.966511
 C         -3.392213   -3.546478    2.094170
 C         -4.693181   -3.470652    1.605081
 H         -5.401854   -4.245779    1.874763
 C         -5.028945   -2.384068    0.777257
 C         -4.052410   -1.432255    0.476421
 C         -4.499820   -0.402677   -0.361465
 C         -5.836170   -0.514672   -0.747432
 C         -6.376563    0.451007   -1.618034
 H         -7.406957    0.427170   -1.955044
 C         -5.542923    1.468414   -2.073135
 C         -6.092249    2.482965   -3.004674
 O         -7.260844    2.481489   -3.374414
 O         -3.152143    4.477186   -3.593805
 C         -3.852446    3.584639   -3.131178
 C         -3.324940    2.567004   -2.194090
 C         -1.984639    2.572094   -1.818680
 H         -1.334171    3.334018   -2.234601
 C         -1.460817    1.623111   -0.928076
 H         -0.407047    1.682711   -0.697839
 C         -2.261595    0.622628   -0.355669
 C         -1.802591   -0.424355    0.601638
 C         -0.520749   -0.517050    1.198039
 C         -0.196009   -1.631498    2.007654
 H          0.794257   -1.690418    2.446967
 C         -1.098082   -2.642609    2.301910
 C         -0.701960   -3.772209    3.175386
 O          0.426771   -3.878237    3.639442
 N         -1.698492   -4.724366    3.444730
 C         -2.404828   -2.561588    1.787305
 C         -2.730439   -1.467429    0.949740
 C         -3.629586    0.608896   -0.789023
 C         -4.169624    1.562115   -1.686483
 N         -5.213088    3.474140   -3.467224
 O          3.927732    5.550879    3.215248
 C          3.115178    4.677983    2.917301
 C          3.461043    3.535603    2.049073
 C          4.784902    3.442617    1.541447
 H          5.498116    4.212541    1.811324
 C          5.090022    2.372438    0.724796
 C          4.080952    1.416919    0.424984
 C          4.492260    0.398940   -0.416402
 C          5.849553    0.483784   -0.831163
 C          6.349529   -0.472349   -1.693172
 H          7.372069   -0.476993   -2.052380
 C          5.470055   -1.495012   -2.140582
 C          5.988765   -2.515877   -3.071393
 O          7.156233   -2.526343   -3.457084
 O          3.012474   -4.474189   -3.603412
 C          3.736035   -3.586247   -3.156932
 C          3.242918   -2.562669   -2.222969
 C          1.889850   -2.547807   -1.819893
 H          1.228682   -3.303636   -2.229335
 C          1.398188   -1.600818   -0.942554
 H          0.346625   -1.630211   -0.699642
 C          2.239064   -0.581222   -0.374133
 C          1.821473    0.445102    0.562939
 C          0.512099    0.566592    1.187337
 C          0.222368    1.671980    1.983787
 H         -0.756682    1.750959    2.444288
 C          1.155796    2.681151    2.271585
 C          0.786937    3.809103    3.142231
 O         -0.340500    3.936093    3.614981
 N          1.802554    4.743754    3.404689
 C          2.462745    2.572062    1.752818
 C          2.766901    1.468286    0.913603
 C          3.597465   -0.592760   -0.833530
 C          4.109437   -1.562431   -1.735881
 N          5.092344   -3.496617   -3.515995
 C         -1.359613   -5.866799    4.303726
 H         -0.319434   -5.762056    4.601242
 C         -5.787603    4.463557   -4.388199
 H         -6.617034    4.981831   -3.902073
 C          1.491052    5.892787    4.264435
 H          1.653187    6.821766    3.713067
 C          5.638812   -4.497371   -4.441148
 H          4.839888   -5.191753   -4.688582
 H          6.008914   -4.005176   -5.343558
 H          6.469823   -5.023758   -3.966461
 H          0.450679    5.807935    4.567865
 H          2.145470    5.888333    5.138976
 H         -2.009010   -5.873922    5.181878
 H         -1.506912   -6.799036    3.753817
 H         -5.002162    5.166875   -4.652657
 H         -6.166383    3.961958   -5.281697
 S         -6.558105   -1.961718   -0.018148
 S          6.614986    1.923525   -0.097166
        88
S1: Total Energy = -3612.21152267
 O         -3.312135   -5.789033    3.237481
 C         -2.582176   -4.873018    2.884562
 C         -3.086877   -3.734686    2.066538
 C         -4.440030   -3.728739    1.689123
 H         -5.075036   -4.547710    2.006545
 C         -4.894976   -2.663440    0.910833
 C         -3.988890   -1.651532    0.544779
 C         -4.543083   -0.657383   -0.253095
 C         -5.908154   -0.845805   -0.549201
 C         -6.549888    0.077770   -1.382978
 H         -7.597340    0.003615   -1.652174
 C         -5.791926    1.132767   -1.904133
 C         -6.458400    2.109853   -2.809064
 O         -7.649069    2.033753   -3.081132
 O         -3.667300    4.219000   -3.631672
 C         -4.296549    3.308291   -3.112607
 C         -3.651133    2.331368   -2.199448
 C         -2.280757    2.409644   -1.925618
 H         -1.702291    3.191893   -2.403953
 C         -1.651562    1.512596   -1.062736
 H         -0.589307    1.622449   -0.901521
 C         -2.366576    0.473986   -0.411004
 C         -1.795598   -0.529686    0.503149
 C         -0.450442   -0.550440    1.007543
 C         -0.000098   -1.681355    1.731986
 H          1.026349   -1.698428    2.080232
 C         -0.828542   -2.734526    2.083135
 C         -0.306370   -3.862093    2.901255
 O          0.860762   -3.915929    3.257227
 N         -1.230041   -4.863152    3.241056
 C         -2.186285   -2.703728    1.696980
 C         -2.635926   -1.617233    0.912898
 C         -3.757192    0.387479   -0.749118
 C         -4.404493    1.298211   -1.616332
 N         -5.669241    3.130488   -3.348288
 O          3.377570    5.852910    3.157984
 C          2.657558    4.918027    2.804992
 C          3.137500    3.788631    1.996564
 C          4.490781    3.755233    1.598800
 H          5.140570    4.567011    1.905815
 C          4.925873    2.682387    0.827813
 C          4.009636    1.676470    0.470608
 C          4.548438    0.657302   -0.315159
 C          5.915090    0.808054   -0.615740
 C          6.538046   -0.138545   -1.426287
 H          7.587236   -0.088559   -1.695154
 C          5.764103   -1.199576   -1.933524
 C          6.402048   -2.195555   -2.806541
 O          7.598664   -2.173362   -3.099813
 O          3.563984   -4.285484   -3.600186
 C          4.200060   -3.362898   -3.085597
 C          3.589989   -2.365160   -2.203252
 C          2.212481   -2.392031   -1.930377
 H          1.616275   -3.164780   -2.404486
 C          1.603874   -1.457352   -1.101536
 H          0.530415   -1.513969   -0.980163
 C          2.348649   -0.433347   -0.455470
 C          1.809513    0.573966    0.459020
 C          0.471463    0.613256    0.988730
 C          0.036935    1.722520    1.729141
 H         -0.974268    1.740676    2.122968
 C          0.868374    2.796608    2.055071
 C          0.362455    3.910457    2.860377
 O         -0.807666    3.988013    3.243356
 N          1.300902    4.909408    3.179592
 C          2.220492    2.762067    1.643992
 C          2.658111    1.662932    0.853696
 C          3.744008   -0.384917   -0.793982
 C          4.373395   -1.331749   -1.646374
 N          5.581132   -3.213828   -3.322397
 C         -0.764925   -6.002566    4.047179
 H          0.296835   -5.865918    4.234650
 C         -6.356768    4.077647   -4.239393
 H         -7.163536    4.573302   -3.695584
 C          0.853446    6.051934    3.982308
 H          1.015524    6.980914    3.430129
 C          6.245146   -4.188557   -4.192998
 H          5.497984   -4.911318   -4.511354
 H          6.678595   -3.681248   -5.058561
 H          7.051065   -4.685704   -3.647785
 H         -0.204011    5.914400    4.194186
 H          1.426037    6.100906    4.911727
 H         -1.316890   -6.036458    4.988835
 H         -0.939972   -6.932158    3.502040
 H         -5.624801    4.805423   -4.579621
 H         -6.782945    3.539686   -5.088748
 S         -6.503814   -2.323180    0.227610
 S          6.531731    2.299767    0.144218
