       138
S0: Total Energy = -4964.60768476
 C          7.113867    1.480963    0.053835
 C          6.157178    2.509102    0.066027
 C          4.848767    2.030590    0.042544
 C          4.759193    0.622718    0.009944
 C          3.423995    0.164443    0.003408
 C          2.525800    1.217889    0.022862
 C          1.162820    0.741289    0.010664
 C          1.224367   -0.676789   -0.041454
 C          0.059945   -1.427920   -0.048623
 S          6.331937   -0.119923    0.007857
 S          3.264550    2.798835    0.051834
 C          2.688209   -1.175600   -0.060301
 H          6.439938    3.555566    0.091303
 H          0.088585   -2.512831   -0.080677
 C         -7.113876   -1.480979   -0.053845
 C         -6.157189   -2.509120   -0.066048
 C         -4.848778   -2.030609   -0.042571
 C         -4.759202   -0.622737   -0.009974
 C         -3.424004   -0.164464   -0.003440
 C         -2.525810   -1.217910   -0.022894
 C         -1.162829   -0.741311   -0.010698
 C         -1.224376    0.676768    0.041419
 C         -0.059954    1.427899    0.048590
 S         -6.331945    0.119906   -0.007890
 S         -3.264561   -2.798855   -0.051865
 C         -2.688218    1.175579    0.060267
 H         -6.439951   -3.555583   -0.091317
 H         -0.088594    2.512809    0.080644
 C          8.496284    1.807048    0.075585
 C          9.660231    1.067803    0.071213
 C          9.749809   -0.412089    0.034780
 O          8.820611   -1.213801    0.007710
 C         11.186569   -0.751333    0.036807
 C         11.773672   -2.007094    0.008823
 C         13.168685   -2.118465    0.015605
 C         13.954491   -0.937439    0.050994
 C         13.342327    0.323704    0.079640
 C         11.947748    0.428180    0.072876
 C         11.029655    1.593618    0.098143
 C         11.439540    2.917754    0.141881
 C         12.809991    3.320014    0.163674
 N         13.909124    3.707201    0.182949
 C         10.557333    4.040414    0.172680
 N          9.882186    4.990572    0.199907
 H          8.622650    2.883637    0.101761
 H         11.145626   -2.893340   -0.018064
 H         13.976701    1.199661    0.106386
 C         -8.496295   -1.807056   -0.075575
 C         -9.660230   -1.067795   -0.071186
 C         -9.749776    0.412098   -0.034749
 O         -8.820559    1.213788   -0.007697
 C        -11.186529    0.751374   -0.036761
 C        -11.773604    2.007148   -0.008773
 C        -13.168615    2.118548   -0.015537
 C        -13.954446    0.937539   -0.050911
 C        -13.342310   -0.323617   -0.079562
 C        -11.947734   -0.428123   -0.072816
 C        -11.029667   -1.593582   -0.098096
 C        -11.439590   -2.917708   -0.141828
 C        -12.810054   -3.319925   -0.163602
 N        -13.909196   -3.707088   -0.182860
 C        -10.557419   -4.040397   -0.172641
 N         -9.882325   -4.990591   -0.199918
 H         -8.622670   -2.883644   -0.101746
 H        -11.145539    2.893380    0.018103
 H        -13.976703   -1.199560   -0.106297
 C          3.074398   -1.878602   -1.381770
 C          4.242548   -2.652972   -1.452909
 C          4.655055   -3.222284   -2.656321
 C          3.920046   -3.043725   -3.835726
 C          2.760475   -2.263420   -3.763283
 C          2.343878   -1.689429   -2.561279
 H          4.834669   -2.824408   -0.559090
 H          5.566945   -3.814743   -2.676244
 H          2.169195   -2.097988   -4.661189
 H          1.441424   -1.087122   -2.551737
 C          2.920352   -2.062535    1.180762
 C          2.597632   -3.427746    1.151108
 C          2.722987   -4.219640    2.290857
 C          3.178273   -3.684226    3.503445
 C          3.493618   -2.321189    3.530972
 C          3.366639   -1.523130    2.393015
 H          2.255556   -3.882753    0.226400
 H          2.464423   -5.274777    2.234680
 H          3.846381   -1.871428    4.456347
 H          3.615396   -0.468526    2.458820
 C         -2.920360    2.062508   -1.180801
 C         -2.597529    3.427695   -1.151195
 C         -2.722880    4.219573   -2.290956
 C         -3.178269    3.684166   -3.503509
 C         -3.493721    2.321155   -3.530989
 C         -3.366747    1.523111   -2.393020
 H         -2.255367    3.882696   -0.226516
 H         -2.464229    5.274690   -2.234816
 H         -3.846565    1.871400   -4.456336
 H         -3.615589    0.468524   -2.458789
 C         -3.074405    1.878579    1.381737
 C         -4.242624    2.652842    1.452920
 C         -4.655124    3.222138    2.656343
 C         -3.920041    3.043668    3.835714
 C         -2.760404    2.263464    3.763229
 C         -2.343814    1.689490    2.561216
 H         -4.834807    2.824204    0.559128
 H         -5.567068    3.814513    2.676300
 H         -2.169066    2.098101    4.661110
 H         -1.441307    1.087261    2.551641
 C          4.352310   -3.690047   -5.130766
 H          3.985797   -4.722945   -5.201239
 H          3.963706   -3.146863   -5.998344
 C          3.348369   -4.554289    4.726422
 H          3.272303   -3.968342    5.648201
 H          2.592918   -5.346580    4.762609
 C         -3.348354    4.554217   -4.726497
 H         -2.592755    5.346362   -4.762810
 H         -3.272519    3.968221   -5.648263
 C         -4.352298    3.689975    5.130765
 H         -3.963646    3.146811    5.998334
 H         -3.985830    4.722889    5.201225
 H          5.443809   -3.728634   -5.213671
 H          4.331465   -5.043687    4.731363
 H         -4.331356    5.043806   -4.731329
 H         -5.443797    3.728513    5.213699
 C        -13.820747    3.477562    0.014249
 H        -13.071483    4.273283    0.041892
 H        -14.453220    3.638545   -0.867905
 H        -14.469452    3.592480    0.891747
 C         13.820847   -3.477465   -0.014174
 H         14.453304   -3.638439    0.867993
 H         13.071600   -4.273201   -0.041838
 H         14.469573   -3.592363   -0.891659
 C        -15.460942    1.026686   -0.057862
 H        -15.835706    1.543863    0.834439
 H        -15.824972    1.591323   -0.925459
 H        -15.915826    0.033174   -0.087387
 C         15.460988   -1.026552    0.057966
 H         15.825019   -1.591187    0.925565
 H         15.835776   -1.543717   -0.834333
 H         15.915850   -0.033031    0.087502
       138
T1: Total Energy = -4964.56122264
 C          7.092899   -1.484957   -0.046252
 C          6.117761   -2.518255   -0.057113
 C          4.824245   -2.037373   -0.032428
 C          4.733618   -0.615603    0.000240
 C          3.422197   -0.158371    0.009168
 C          2.493779   -1.223719   -0.008670
 C          1.166346   -0.749371   -0.002768
 C          1.225091    0.689421    0.043839
 C          0.074661    1.436317    0.041830
 S          6.322682    0.121432    0.001224
 S          3.236503   -2.810449   -0.038873
 C          2.690911    1.183428    0.069627
 H          6.399734   -3.564475   -0.082822
 H          0.102541    2.521195    0.068336
 C         -7.092897    1.484958    0.046273
 C         -6.117758    2.518257    0.057122
 C         -4.824242    2.037375    0.032421
 C         -4.733616    0.615605   -0.000244
 C         -3.422195    0.158372   -0.009196
 C         -2.493777    1.223720    0.008631
 C         -1.166344    0.749372    0.002713
 C         -1.225089   -0.689420   -0.043892
 C         -0.074659   -1.436316   -0.041891
 S         -6.322680   -0.121430   -0.001202
 S         -3.236500    2.810450    0.038844
 C         -2.690910   -1.183427   -0.069668
 H         -6.399731    3.564477    0.082831
 H         -0.102539   -2.521193   -0.068395
 C          8.465225   -1.816040   -0.071044
 C          9.639504   -1.071675   -0.069182
 C          9.729099    0.409437   -0.031513
 O          8.797572    1.209259   -0.000523
 C         11.164802    0.751394   -0.037689
 C         11.752616    2.006056   -0.010485
 C         13.148745    2.116477   -0.021658
 C         13.930980    0.934957   -0.060585
 C         13.316474   -0.327139   -0.088347
 C         11.923263   -0.429947   -0.077208
 C         10.999408   -1.593530   -0.100331
 C         11.409353   -2.924743   -0.146234
 C         12.778041   -3.326201   -0.172008
 N         13.878133   -3.712882   -0.194491
 C         10.529629   -4.047138   -0.175431
 N          9.858140   -5.000904   -0.201682
 H          8.592695   -2.891852   -0.097457
 H         11.125762    2.893177    0.019191
 H         13.949997   -1.203692   -0.117881
 C         -8.465223    1.816043    0.071070
 C         -9.639502    1.071679    0.069218
 C         -9.729098   -0.409434    0.031568
 O         -8.797573   -1.209257    0.000593
 C        -11.164802   -0.751389    0.037753
 C        -11.752618   -2.006051    0.010570
 C        -13.148746   -2.116469    0.021745
 C        -13.930980   -0.934948    0.060650
 C        -13.316473    0.327148    0.088390
 C        -11.923262    0.429954    0.077252
 C        -10.999405    1.593536    0.100359
 C        -11.409349    2.924749    0.146253
 C        -12.778036    3.326211    0.172021
 N        -13.878128    3.712892    0.194500
 C        -10.529623    4.047144    0.175449
 N         -9.858132    5.000909    0.201696
 H         -8.592692    2.891855    0.097476
 H        -11.125765   -2.893172   -0.019089
 H        -13.949995    1.203702    0.117908
 C          3.074829    1.876299    1.397130
 C          4.240604    2.653476    1.475853
 C          4.650008    3.211598    2.685249
 C          3.914880    3.018061    3.862547
 C          2.758463    2.233901    3.782080
 C          2.345149    1.670143    2.574246
 H          4.832982    2.835469    0.584450
 H          5.559627    3.807077    2.711914
 H          2.168022    2.056331    4.678087
 H          1.445560    1.063576    2.559034
 C          2.932203    2.070620   -1.168838
 C          2.624446    3.439080   -1.135155
 C          2.755716    4.231074   -2.274041
 C          3.201952    3.692446   -3.488695
 C          3.501432    2.325862   -3.519822
 C          3.367715    1.527278   -2.383162
 H          2.290021    3.896381   -0.208849
 H          2.509526    5.288942   -2.215464
 H          3.846299    1.873711   -4.446880
 H          3.604488    0.470043   -2.452320
 C         -2.932190   -2.070625    1.168794
 C         -2.624472   -3.439093    1.135084
 C         -2.755733   -4.231099    2.273962
 C         -3.201921   -3.692475    3.488636
 C         -3.501364   -2.325885    3.519789
 C         -3.367656   -1.527288    2.383136
 H         -2.290086   -3.896390    0.208762
 H         -2.509573   -5.288973    2.215364
 H         -3.846196   -1.873737    4.446863
 H         -3.604401   -0.470048    2.452315
 C         -3.074842   -1.876294   -1.397170
 C         -4.240589   -2.653515   -1.475867
 C         -4.650009   -3.211637   -2.685258
 C         -3.914923   -3.018057   -3.862576
 C         -2.758533   -2.233855   -3.782134
 C         -2.345205   -1.670096   -2.574305
 H         -4.832933   -2.835542   -0.584448
 H         -5.559606   -3.807150   -2.711903
 H         -2.168126   -2.056251   -4.678156
 H         -1.445638   -1.063495   -2.559112
 C          4.344752    3.652159    5.164162
 H          3.976260    4.683650    5.243650
 H          3.956049    3.100039    6.025939
 C          3.378766    4.562657   -4.710411
 H          3.293468    3.979428   -5.633029
 H          2.632817    5.363980   -4.742805
 C         -3.378722   -4.562700    4.710344
 H         -2.632714   -5.363968    4.742769
 H         -3.293506   -3.979465    5.632966
 C         -4.344809   -3.652155   -5.164185
 H         -3.956190   -3.099983   -6.025967
 H         -3.976239   -4.683615   -5.243717
 H          5.436041    3.691867    5.248298
 H          4.367683    5.040027   -4.716531
 H         -4.367602   -5.040146    4.716421
 H         -5.436099   -3.691947   -5.248271
 C        -13.802552   -3.475060   -0.007092
 H        -13.053850   -4.271382   -0.037427
 H        -14.432564   -3.637113    0.876731
 H        -14.453769   -3.589818   -0.882861
 C         13.802549    3.475067    0.007202
 H         14.432559    3.637137   -0.876620
 H         13.053846    4.271388    0.037554
 H         14.453769    3.589809    0.882971
 C        -15.437703   -1.020714    0.072530
 H        -15.816771   -1.536416   -0.818905
 H        -15.800291   -1.585477    0.940748
 H        -15.890496   -0.026288    0.104455
 C         15.437703    1.020725   -0.072466
 H         15.800288    1.585505   -0.940674
 H         15.816771    1.536411    0.818978
 H         15.890497    0.026301   -0.104411
       138
S1: Total Energy = -4964.54338446
 C          7.095970   -1.485161   -0.043625
 C          6.129951   -2.514726   -0.052746
 C          4.828563   -2.032027   -0.029256
 C          4.740277   -0.616838    0.000053
 C          3.419975   -0.159155    0.007335
 C          2.500866   -1.221637   -0.008292
 C          1.164891   -0.747493   -0.003152
 C          1.224216    0.687831    0.041904
 C          0.070401    1.435613    0.040671
 S          6.325630    0.120245    0.000363
 S          3.243340   -2.805303   -0.034761
 C          2.689009    1.181973    0.064155
 H          6.410563   -3.561354   -0.076352
 H          0.097870    2.520416    0.066644
 C         -7.095970    1.485157    0.043619
 C         -6.129952    2.514722    0.052745
 C         -4.828564    2.032024    0.029262
 C         -4.740278    0.616835   -0.000047
 C         -3.419976    0.159152   -0.007321
 C         -2.500867    1.221634    0.008311
 C         -1.164892    0.747490    0.003174
 C         -1.224217   -0.687834   -0.041883
 C         -0.070402   -1.435616   -0.040650
 S         -6.325630   -0.120249   -0.000372
 S         -3.243340    2.805300    0.034767
 C         -2.689010   -1.181976   -0.064139
 H         -6.410564    3.561351    0.076351
 H         -0.097869   -2.520419   -0.066624
 C          8.477151   -1.815474   -0.068513
 C          9.645473   -1.072860   -0.067596
 C          9.732430    0.409828   -0.028685
 O          8.798627    1.207028    0.002851
 C         11.166647    0.753494   -0.034326
 C         11.752287    2.008842   -0.005258
 C         13.148520    2.122252   -0.015917
 C         13.932717    0.941338   -0.056175
 C         13.321197   -0.321750   -0.085913
 C         11.927106   -0.428688   -0.075461
 C         11.010130   -1.592321   -0.100361
 C         11.420889   -2.925332   -0.149652
 C         12.788979   -3.325642   -0.178095
 N         13.890385   -3.710107   -0.203056
 C         10.541535   -4.046638   -0.180572
 N          9.866939   -4.998979   -0.208138
 H          8.603798   -2.891567   -0.094422
 H         11.123735    2.894781    0.025409
 H         13.956164   -1.197282   -0.116149
 C         -8.477152    1.815470    0.068501
 C         -9.645473    1.072856    0.067581
 C         -9.732429   -0.409832    0.028680
 O         -8.798625   -1.207031   -0.002854
 C        -11.166645   -0.753499    0.034314
 C        -11.752284   -2.008847    0.005247
 C        -13.148517   -2.122259    0.015898
 C        -13.932716   -0.941345    0.056147
 C        -13.321197    0.321744    0.085885
 C        -11.927105    0.428683    0.075441
 C        -11.010130    1.592316    0.100341
 C        -11.420890    2.925328    0.149634
 C        -12.788980    3.325638    0.178084
 N        -13.890384    3.710107    0.203052
 C        -10.541535    4.046634    0.180557
 N         -9.866940    4.998974    0.208149
 H         -8.603798    2.891563    0.094411
 H        -11.123732   -2.894786   -0.025413
 H        -13.956165    1.197274    0.116113
 C          3.075169    1.878378    1.388736
 C          4.237706    2.660908    1.462032
 C          4.648708    3.222311    2.669284
 C          3.918529    3.026947    3.849502
 C          2.765549    2.237035    3.774387
 C          2.350877    1.669572    2.568950
 H          4.826240    2.844140    0.568380
 H          5.555690    3.821884    2.692072
 H          2.179351    2.057698    4.672774
 H          1.454743    1.057691    2.558128
 C          2.925589    2.063831   -1.178916
 C          2.620391    3.432977   -1.150000
 C          2.748153    4.219212   -2.293215
 C          3.188184    3.673933   -3.507273
 C          3.485026    2.306599   -3.533411
 C          3.354568    1.513623   -2.392580
 H          2.291078    3.895342   -0.224379
 H          2.504229    5.277789   -2.238656
 H          3.825065    1.849540   -4.459802
 H          3.588710    0.455516   -2.457708
 C         -2.925594   -2.063830    1.178933
 C         -2.620358   -3.432968    1.150032
 C         -2.748125   -4.219200    2.293247
 C         -3.188199   -3.673926    3.507293
 C         -3.485079   -2.306601    3.533416
 C         -3.354617   -1.513627    2.392583
 H         -2.291012   -3.895331    0.224421
 H         -2.504170   -5.277770    2.238700
 H         -3.825153   -1.849546    4.459796
 H         -3.588791   -0.455527    2.457700
 C         -3.075168   -1.878381   -1.388721
 C         -4.237721   -2.660883   -1.462036
 C         -4.648716   -3.222276   -2.669296
 C         -3.918515   -3.026927   -3.849502
 C         -2.765520   -2.237038   -3.774368
 C         -2.350855   -1.669586   -2.568925
 H         -4.826276   -2.844099   -0.568395
 H         -5.555712   -3.821827   -2.692098
 H         -2.179304   -2.057711   -4.672746
 H         -1.454709   -1.057721   -2.558089
 C          4.350079    3.664769    5.148597
 H          3.976684    4.694511    5.227853
 H          3.967241    3.111954    6.012521
 C          3.361283    4.538037   -4.733738
 H          3.271193    3.950635   -5.653220
 H          2.616672    5.340551   -4.766684
 C         -3.361297   -4.538030    4.733759
 H         -2.616580   -5.340443    4.766790
 H         -3.271373   -3.950598    5.653238
 C         -4.350057   -3.664739   -5.148604
 H         -3.967234   -3.111904   -6.012521
 H         -3.976640   -4.694472   -5.227877
 H          5.441434    3.710063    5.228527
 H          4.351040    5.013507   -4.746034
 H         -4.350989   -5.013636    4.745968
 H         -5.441411   -3.710054   -5.228531
 C        -13.799842   -3.481747   -0.014845
 H        -13.049676   -4.276705   -0.046205
 H        -14.429792   -3.646609    0.868649
 H        -14.451007   -3.596983   -0.890731
 C         13.799847    3.481739    0.014826
 H         14.429789    3.646603   -0.868673
 H         13.049683    4.276698    0.046196
 H         14.451019    3.596970    0.890707
 C        -15.439174   -1.030162    0.067209
 H        -15.816791   -1.545450   -0.825140
 H        -15.801010   -1.597112    0.934371
 H        -15.893998   -0.036715    0.100426
 C         15.439175    1.030154   -0.067246
 H         15.801005    1.597109   -0.934408
 H         15.816798    1.545438    0.825102
 H         15.893999    0.036707   -0.100471
