       129
S0: Total Energy = -4411.57014706
 C          6.010906    0.120255   -0.047854
 C          5.588650    1.463870   -0.036292
 C          4.203180    1.609407   -0.030394
 C          3.543473    0.384351   -0.027340
 C          2.112466    0.573811   -0.009810
 C          1.879482    1.975678    0.019901
 C          0.584107    2.469284    0.016814
 S          4.605051   -0.973726   -0.039545
 C          3.206489    2.769416    0.020513
 H          0.387469    3.537080    0.025804
 C         -6.443689    1.041027    0.034264
 C         -5.720207    2.244887    0.024649
 C         -4.341067    2.046188    0.010258
 C         -3.963411    0.686407    0.006948
 C         -2.562429    0.512949    0.008408
 C         -1.901123    1.729377    0.003741
 C         -0.469469    1.543891   -0.002861
 C         -0.237120    0.141912   -0.027337
 C          1.056734   -0.351487   -0.028420
 S         -5.348498   -0.364785    0.020571
 S         -2.949441    3.124587    0.001081
 C         -1.566826   -0.648002   -0.026698
 H         -6.213130    3.210592    0.028638
 H          1.254307   -1.418895   -0.042587
 C          7.394761   -0.193253   -0.061098
 C          8.117282   -1.368797   -0.073754
 C          7.548014   -2.735823   -0.077987
 O          6.361230   -3.049681   -0.077322
 C          8.690315   -3.675650   -0.083625
 C          8.652242   -5.061916   -0.088986
 C          9.857314   -5.777578   -0.095137
 C         11.062258   -5.050361   -0.101938
 C         11.101364   -3.654833   -0.097124
 C          9.893010   -2.947047   -0.087005
 C          9.578567   -1.497053   -0.083326
 C         10.528901   -0.487525   -0.089485
 C         11.936599   -0.730304   -0.096700
 N         13.093668   -0.869671   -0.102565
 C         10.230502    0.909156   -0.091439
 N         10.042556    2.059749   -0.094678
 H          7.980171    0.719639   -0.059244
 H          7.694279   -5.574647   -0.089410
 H         12.002842   -5.595291   -0.112777
 H         12.061383   -3.156955   -0.104168
 C         -7.863609    1.075228    0.050654
 C         -8.849266    0.110754    0.063344
 C         -8.629461   -1.354710    0.057869
 O         -7.555207   -1.947556    0.044414
 C         -9.965846   -1.988079    0.072065
 C        -10.265919   -3.341978    0.069635
 C        -11.608880   -3.743057    0.081610
 C        -12.600797   -2.744636    0.088747
 C        -12.299472   -1.381425    0.091330
 C        -10.955265   -0.988728    0.084005
 C        -10.298206    0.341194    0.082229
 C        -10.974459    1.551367    0.099936
 C        -12.398799    1.657943    0.119915
 N        -13.554893    1.804104    0.136800
 C        -10.344902    2.833240    0.103073
 N         -9.880895    3.902774    0.106872
 H         -8.209917    2.102770    0.054173
 H         -9.461409   -4.072213    0.057074
 H        -13.645623   -3.044767    0.090642
 H        -13.109761   -0.665188    0.095213
 C          3.453083    3.560746    1.323979
 C          4.508768    4.485167    1.383300
 C          4.812443    5.154054    2.565838
 C          4.075755    4.930251    3.738416
 C          3.030199    4.003975    3.677776
 C          2.722748    3.328428    2.493897
 H          5.096188    4.691052    0.493069
 H          5.637347    5.863105    2.577844
 H          2.441894    3.801311    4.569948
 H          1.907328    2.612809    2.494438
 C          3.243019    3.671018   -1.231693
 C          2.675472    4.953484   -1.201752
 C          2.626992    5.744262   -2.348696
 C          3.145122    5.290101   -3.568739
 C          3.704918    4.007383   -3.596527
 C          3.752837    3.210756   -2.451898
 H          2.276442    5.346259   -0.271324
 H          2.180572    6.734608   -2.291698
 H          4.112719    3.621188   -4.528059
 H          4.191592    2.220001   -2.517642
 C         -1.610595   -1.531483    1.237773
 C         -0.996341   -2.793357    1.243972
 C         -0.954294   -3.565129    2.402955
 C         -1.526210   -3.112930    3.600366
 C         -2.133233   -1.852580    3.591863
 C         -2.174559   -1.073673    2.434018
 H         -0.554806   -3.184332    0.332206
 H         -0.469472   -4.538500    2.374609
 H         -2.584104   -1.468946    4.504277
 H         -2.648734   -0.097970    2.472707
 C         -1.800071   -1.450136   -1.327317
 C         -2.774113   -2.459275   -1.368184
 C         -3.059481   -3.134462   -2.553693
 C         -2.385551   -2.831719   -3.744082
 C         -1.421708   -1.817679   -3.702015
 C         -1.133370   -1.137148   -2.518291
 H         -3.310497   -2.731702   -0.464325
 H         -3.821797   -3.910220   -2.550504
 H         -0.884193   -1.551536   -4.609460
 H         -0.381983   -0.354431   -2.531942
 C          4.391838    5.680372    5.010862
 H          3.996446    6.704254    4.977721
 H          3.953766    5.187771    5.884695
 C          3.125387    6.164128   -4.800585
 H          3.108288    5.564553   -5.716682
 H          2.251908    6.824790   -4.808987
 C         -1.509173   -3.968964    4.844753
 H         -0.573474   -4.532141    4.930579
 H         -1.626137   -3.362881    5.748905
 C         -2.672954   -3.589446   -5.018782
 H         -2.424407   -2.993720   -5.903138
 H         -2.083646   -4.514651   -5.072373
 H          5.472975    5.758851    5.171021
 H          4.016482    6.804313   -4.847239
 H         -2.327351   -4.701344    4.833750
 H         -3.728389   -3.874533   -5.085278
 C        -11.987989   -5.202657    0.107066
 H        -11.167207   -5.834814   -0.244263
 H        -12.237816   -5.522185    1.127328
 H        -12.866419   -5.398047   -0.516885
 C          9.871291   -7.285687   -0.075375
 H         10.089636   -7.660250    0.933227
 H          8.904723   -7.698271   -0.378829
 H         10.642375   -7.686297   -0.742075
 H          6.304353    2.278853   -0.031438
       129
T1: Total Energy = -4411.52316741
 C          5.990687    0.114795   -0.036643
 C          5.566218    1.473616   -0.025694
 C          4.194891    1.622079   -0.016005
 C          3.514133    0.387871   -0.011847
 C          2.114854    0.579280   -0.001367
 C          1.873083    2.000963    0.021564
 C          0.593224    2.492142    0.006669
 S          4.583275   -0.982248   -0.025424
 C          3.204760    2.787276    0.030230
 H          0.394292    3.559330    0.009298
 C         -6.425705    1.044206    0.025395
 C         -5.683763    2.261715    0.013343
 C         -4.321946    2.059816   -0.004060
 C         -3.935849    0.684612   -0.007435
 C         -2.562658    0.509444   -0.008866
 C         -1.872050    1.749324   -0.016129
 C         -0.479126    1.560482   -0.014985
 C         -0.236780    0.138595   -0.031907
 C          1.043934   -0.351407   -0.021222
 S         -5.339473   -0.367803    0.008444
 S         -2.928537    3.147667   -0.017216
 C         -1.567193   -0.650921   -0.040246
 H         -6.178368    3.226001    0.018657
 H          1.243840   -1.418213   -0.027315
 C          7.365939   -0.198005   -0.052605
 C          8.088764   -1.386158   -0.065881
 C          7.513458   -2.752733   -0.067987
 O          6.324798   -3.060259   -0.064040
 C          8.650497   -3.698316   -0.076578
 C          8.607753   -5.082426   -0.081736
 C          9.812918   -5.803234   -0.091489
 C         11.016618   -5.079500   -0.102513
 C         11.059623   -3.680955   -0.098015
 C          9.855470   -2.971127   -0.083878
 C          9.540509   -1.519514   -0.079318
 C         10.497258   -0.507635   -0.087627
 C         11.902330   -0.755897   -0.098084
 N         13.059438   -0.900331   -0.106609
 C         10.206766    0.889115   -0.088573
 N         10.028743    2.041982   -0.091123
 H          7.957219    0.710293   -0.053244
 H          7.647970   -5.592297   -0.079413
 H         11.956093   -5.626006   -0.116524
 H         12.021369   -3.186455   -0.108652
 C         -7.834362    1.084240    0.047207
 C         -8.829285    0.108678    0.064514
 C         -8.606739   -1.357886    0.056906
 O         -7.529145   -1.945784    0.035406
 C         -9.940098   -1.996532    0.080122
 C        -10.238406   -3.348460    0.079850
 C        -11.584094   -3.751329    0.101546
 C        -12.572379   -2.754193    0.116908
 C        -12.270361   -1.387272    0.117001
 C        -10.929298   -0.995191    0.099130
 C        -10.266633    0.334559    0.091671
 C        -10.945839    1.552270    0.111060
 C        -12.368090    1.656435    0.139043
 N        -13.525252    1.800259    0.162326
 C        -10.321303    2.834323    0.107547
 N         -9.864947    3.908123    0.106188
 H         -8.184101    2.109736    0.052245
 H         -9.433501   -4.078590    0.061603
 H        -13.617394   -3.053010    0.127934
 H        -13.081323   -0.671801    0.127734
 C          3.450894    3.571522    1.338039
 C          4.505735    4.496570    1.402155
 C          4.808801    5.158065    2.588810
 C          4.073260    4.925222    3.760451
 C          3.029566    3.997072    3.694969
 C          2.722724    3.328602    2.507124
 H          5.092900    4.708419    0.513320
 H          5.632567    5.868220    2.604931
 H          2.442990    3.786893    4.586452
 H          1.908910    2.611122    2.504258
 C          3.253420    3.688113   -1.221312
 C          2.701237    4.977284   -1.192263
 C          2.663134    5.766987   -2.340129
 C          3.176602    5.305017   -3.559473
 C          3.720579    4.015552   -3.585919
 C          3.757592    3.219381   -2.440574
 H          2.306936    5.376041   -0.262411
 H          2.229161    6.762861   -2.284566
 H          4.124122    3.623453   -4.516731
 H          4.184568    2.223414   -2.505524
 C         -1.618530   -1.538401    1.220236
 C         -1.021953   -2.808554    1.219036
 C         -0.983927   -3.582890    2.376417
 C         -1.541992   -3.124925    3.578196
 C         -2.130196   -1.855475    3.576667
 C         -2.166651   -1.073437    2.421101
 H         -0.591594   -3.203907    0.303890
 H         -0.513587   -4.563068    2.343148
 H         -2.569015   -1.467069    4.492795
 H         -2.626085   -0.090828    2.465774
 C         -1.797326   -1.440490   -1.349011
 C         -2.769051   -2.451676   -1.401316
 C         -3.051072   -3.113437   -2.594489
 C         -2.376729   -2.794597   -3.781175
 C         -1.416113   -1.778471   -3.727099
 C         -1.131603   -1.109913   -2.535468
 H         -3.305523   -2.735812   -0.501269
 H         -3.810867   -3.891514   -2.601010
 H         -0.879096   -1.500052   -4.630985
 H         -0.383143   -0.324242   -2.540534
 C          4.389480    5.667115    5.037490
 H          3.995172    6.691539    5.009885
 H          3.950452    5.169774    5.908082
 C          3.168205    6.178124   -4.791954
 H          3.150782    5.578058   -5.707651
 H          2.299719    6.845236   -4.804351
 C         -1.529985   -3.983759    4.820493
 H         -0.606052   -4.567440    4.894755
 H         -1.624248   -3.377423    5.727070
 C         -2.663342   -3.537762   -5.064315
 H         -2.370165   -2.950907   -5.940648
 H         -2.110777   -4.485891   -5.105199
 H          5.470616    5.743486    5.198374
 H          4.064212    6.811599   -4.834778
 H         -2.364265   -4.697741    4.816238
 H         -3.727479   -3.780516   -5.156574
 C        -11.952307   -5.214077    0.125699
 H        -11.333813   -5.791328   -0.570195
 H        -11.796282   -5.640359    1.125288
 H        -13.002504   -5.367860   -0.139197
 C          9.812402   -7.311578   -0.069894
 H          9.639997   -7.687452    0.947202
 H          9.016846   -7.718498   -0.703087
 H         10.768146   -7.718124   -0.413692
 H          6.287466    2.283205   -0.023707
       129
S1: Total Energy = -4411.50398439
 C          5.995238    0.120132   -0.034999
 C          5.572462    1.472065   -0.026787
 C          4.194035    1.618075   -0.018677
 C          3.520988    0.386310   -0.013459
 C          2.113517    0.576162   -0.005100
 C          1.873005    1.994566    0.017500
 C          0.589248    2.486005    0.003355
 S          4.590416   -0.979630   -0.023459
 C          3.203229    2.781795    0.024432
 H          0.390224    3.553100    0.006652
 C         -6.428483    1.044156    0.022528
 C         -5.696611    2.253495    0.009497
 C         -4.324827    2.051063   -0.008554
 C         -3.944570    0.683188   -0.010757
 C         -2.560010    0.508711   -0.011715
 C         -1.879965    1.741349   -0.019901
 C         -0.476405    1.554885   -0.018132
 C         -0.236231    0.137358   -0.035096
 C          1.048428   -0.353804   -0.025011
 S         -5.342745   -0.367154    0.005724
 S         -2.933506    3.136769   -0.022304
 C         -1.565789   -0.651256   -0.041559
 H         -6.189157    3.218872    0.015120
 H          1.248104   -1.420540   -0.031426
 C          7.377328   -0.193762   -0.049247
 C          8.098675   -1.378031   -0.060408
 C          7.522026   -2.745461   -0.060162
 O          6.332627   -3.050958   -0.055647
 C          8.657895   -3.690892   -0.066958
 C          8.614834   -5.074346   -0.068938
 C          9.820397   -5.796350   -0.076523
 C         11.023827   -5.072319   -0.087530
 C         11.067907   -3.673536   -0.086320
 C          9.864010   -2.961729   -0.075085
 C          9.552190   -1.513216   -0.073550
 C         10.509756   -0.497845   -0.084610
 C         11.913928   -0.744815   -0.095268
 N         13.071584   -0.890339   -0.104182
 C         10.217405    0.897153   -0.088720
 N         10.035318    2.050165   -0.093771
 H          7.966553    0.716026   -0.050545
 H          7.654771   -5.583879   -0.065528
 H         11.963150   -5.619295   -0.098431
 H         12.029768   -3.179180   -0.096456
 C         -7.847385    1.082162    0.048276
 C         -8.835947    0.111731    0.067376
 C         -8.611267   -1.355615    0.049962
 O         -7.532410   -1.941000    0.022489
 C         -9.943226   -1.994785    0.070823
 C        -10.239929   -3.346798    0.060431
 C        -11.585286   -3.752037    0.081079
 C        -12.575032   -2.755621    0.105855
 C        -12.275758   -1.388705    0.116414
 C        -10.934263   -0.992794    0.099745
 C        -10.278707    0.335351    0.102496
 C        -10.957969    1.553942    0.138874
 C        -12.379408    1.658032    0.175114
 N        -13.537057    1.800412    0.205928
 C        -10.331727    2.834141    0.148768
 N         -9.869724    3.906125    0.158883
 H         -8.194925    2.108713    0.055348
 H         -9.433993   -4.075626    0.035222
 H        -13.619569   -3.056402    0.115983
 H        -13.087532   -0.674250    0.133814
 C          3.449262    3.568831    1.330087
 C          4.500507    4.498323    1.390762
 C          4.803479    5.162014    2.576158
 C          4.071450    4.927257    3.749662
 C          3.031444    3.994471    3.687599
 C          2.724982    3.323457    2.501334
 H          5.084830    4.711668    0.500461
 H          5.624477    5.875353    2.589876
 H          2.448019    3.782591    4.580709
 H          1.914835    2.601733    2.501457
 C          3.248865    3.677178   -1.230918
 C          2.701327    4.968409   -1.206344
 C          2.662113    5.752089   -2.358244
 C          3.169744    5.281790   -3.577026
 C          3.708841    3.990123   -3.598859
 C          3.746641    3.199770   -2.449657
 H          2.312062    5.373588   -0.277148
 H          2.232174    6.749890   -2.306500
 H          4.107611    3.591786   -4.529028
 H          4.168988    2.201537   -2.510710
 C         -1.613757   -1.534963    1.221398
 C         -1.021331   -2.807093    1.222145
 C         -0.981607   -3.577202    2.382193
 C         -1.533756   -3.112911    3.584436
 C         -2.117666   -1.841370    3.580743
 C         -2.155545   -1.063332    2.422696
 H         -0.595840   -3.207231    0.306809
 H         -0.514692   -4.559037    2.350851
 H         -2.551601   -1.448293    4.497153
 H         -2.610743   -0.078607    2.465416
 C         -1.798283   -1.440929   -1.349343
 C         -2.765637   -2.456472   -1.398440
 C         -3.049452   -3.117972   -2.591225
 C         -2.381352   -2.794656   -3.780455
 C         -1.425343   -1.773837   -3.729494
 C         -1.139456   -1.105091   -2.538570
 H         -3.297084   -2.743969   -0.496522
 H         -3.805600   -3.899542   -2.595649
 H         -0.893692   -1.491780   -4.635362
 H         -0.395708   -0.314888   -2.546204
 C          4.387419    5.671607    5.025194
 H          3.985861    6.693249    4.998581
 H          3.955110    5.171627    5.897610
 C          3.160343    6.148598   -4.813819
 H          3.138339    5.543984   -5.726392
 H          2.294084    6.818559   -4.826913
 C         -1.519801   -3.967313    4.829624
 H         -0.595791   -4.550775    4.904415
 H         -1.612794   -3.357867    5.734196
 C         -2.669773   -3.537803   -5.062997
 H         -2.385306   -2.947785   -5.940040
 H         -2.110684   -4.481920   -5.107932
 H          5.468584    5.755543    5.181764
 H          4.058362    6.778787   -4.862306
 H         -2.354098   -4.681265    4.828811
 H         -3.732616   -3.787967   -5.149709
 C        -11.951562   -5.215080    0.094076
 H        -11.340039   -5.784564   -0.614472
 H        -11.784008   -5.652133    1.087266
 H        -13.004406   -5.367497   -0.160963
 C          9.817812   -7.304491   -0.055966
 H          9.555002   -7.682536    0.940725
 H          9.080849   -7.710634   -0.757718
 H         10.799538   -7.711010   -0.316067
 H          6.290723    2.284170   -0.025602
