       114
S0: Total Energy = -6288.82142802
 C          7.140835    1.336237    0.004721
 C          6.207975    2.387827    0.004434
 C          4.889437    1.939483    0.009276
 C          4.770063    0.533178    0.016057
 C          3.425808    0.108427    0.029513
 C          2.548085    1.179020    0.018477
 C          1.175239    0.726932    0.003973
 C          1.207819   -0.692455   -0.007783
 C          0.036988   -1.432036   -0.005937
 S          6.321347   -0.247681    0.011239
 S          3.321441    2.741939    0.004997
 C          2.664483   -1.220513    0.004370
 H          6.514996    3.427628   -0.001908
 H          0.057677   -2.517647   -0.003566
 C         -7.140835   -1.336237   -0.004723
 C         -6.207975   -2.387827   -0.004436
 C         -4.889437   -1.939484   -0.009277
 C         -4.770063   -0.533178   -0.016058
 C         -3.425808   -0.108428   -0.029513
 C         -2.548085   -1.179020   -0.018477
 C         -1.175240   -0.726933   -0.003973
 C         -1.207819    0.692454    0.007784
 C         -0.036988    1.432035    0.005937
 S         -6.321347    0.247680   -0.011242
 S         -3.321441   -2.741940   -0.004998
 C         -2.664483    1.220512   -0.004370
 H         -6.514996   -3.427629    0.001905
 H         -0.057678    2.517646    0.003567
 C          8.528643    1.629232   -0.006983
 C          9.675929    0.860816   -0.012823
 C          9.726809   -0.617068   -0.000221
 O          8.784641   -1.402250    0.010612
 C         11.159151   -0.995377   -0.002020
 C         11.692349   -2.274831    0.009236
 C         13.080271   -2.368005    0.005049
 C         13.904829   -1.242015   -0.009663
 C         13.345747    0.036761   -0.021133
 C         11.950082    0.168225   -0.017309
 C         11.057205    1.353870   -0.027527
 C         11.499364    2.667574   -0.050563
 C         12.879602    3.034905   -0.062386
 N         13.989318    3.390723   -0.072521
 C         10.645182    3.811993   -0.067415
 N          9.994720    4.779309   -0.082165
 H          8.682301    2.702504   -0.012031
 H         11.062497   -3.157651    0.020824
 H         14.981023   -1.377558   -0.011985
 H         14.006520    0.892375   -0.032309
 C         -8.528643   -1.629232    0.006981
 C         -9.675928   -0.860816    0.012820
 C         -9.726808    0.617068    0.000217
 O         -8.784639    1.402249   -0.010608
 C        -11.159149    0.995378    0.002022
 C        -11.692347    2.274833   -0.009230
 C        -13.080268    2.368008   -0.005041
 C        -13.904827    1.242018    0.009668
 C        -13.345746   -0.036758    0.021133
 C        -11.950081   -0.168224    0.017308
 C        -11.057206   -1.353869    0.027524
 C        -11.499367   -2.667573    0.050558
 C        -12.879605   -3.034901    0.062382
 N        -13.989322   -3.390716    0.072517
 C        -10.645186   -3.811993    0.067410
 N         -9.994726   -4.779311    0.082165
 H         -8.682301   -2.702504    0.012028
 H        -11.062494    3.157652   -0.020816
 H        -14.981021    1.377561    0.011992
 H        -14.006520   -0.892372    0.032308
 C          3.020497   -1.997530   -1.260784
 C          4.077682   -2.846021   -1.463715
 C          4.201124   -3.287284   -2.816739
 C          3.249139   -2.773954   -3.655195
 S          2.163469   -1.726756   -2.767552
 H          4.749794   -3.154112   -0.671133
 H          4.973037   -3.971789   -3.154234
 C          2.900501   -2.061677    1.254236
 C          2.744099   -3.412283    1.422787
 C          2.922485   -3.839880    2.774388
 C          3.208703   -2.822778    3.644174
 S          3.266223   -1.296470    2.789778
 H          2.513795   -4.087053    0.606660
 H          2.849346   -4.876389    3.088679
 C         -2.900501    2.061677   -1.254236
 C         -2.744098    3.412282   -1.422786
 C         -2.922485    3.839879   -2.774388
 C         -3.208702    2.822777   -3.644174
 S         -3.266223    1.296469   -2.789778
 H         -2.513795    4.087052   -0.606660
 H         -2.849345    4.876388   -3.088678
 C         -3.020497    1.997529    1.260784
 C         -4.077682    2.846020    1.463715
 C         -4.201125    3.287283    2.816739
 C         -3.249140    2.773952    3.655195
 S         -2.163470    1.726755    2.767553
 H         -4.749794    3.154111    0.671132
 H         -4.973038    3.971788    3.154234
 C          3.059295   -3.025904   -5.121543
 H          3.836968   -3.706892   -5.480736
 H          2.085571   -3.482481   -5.336544
 C          3.476911   -2.899368    5.117783
 H          3.385214   -3.936683    5.454128
 H          2.768535   -2.293625    5.695447
 C         -3.059296    3.025903    5.121543
 H         -3.836970    3.706890    5.480737
 H         -2.085573    3.482479    5.336545
 C         -3.476909    2.899368   -5.117782
 H         -3.385213    3.936682   -5.454128
 H         -2.768533    2.293626   -5.695447
 H         -4.486324    2.551516   -5.368453
 H         -3.124041    2.101340    5.707593
 H          3.124039   -2.101342   -5.707593
 H          4.486326   -2.551516    5.368452
 F        -13.652986    3.583846   -0.015562
 F         13.652990   -3.583843    0.015575
       114
T1: Total Energy = -6288.77480654
 C          7.120387    1.340985   -0.004197
 C          6.169793    2.397639   -0.009812
 C          4.865370    1.946481   -0.005461
 C          4.744809    0.526703    0.005889
 C          3.423945    0.101909    0.016922
 C          2.516358    1.184840    0.000985
 C          1.179407    0.734691   -0.004919
 C          1.208206   -0.705628   -0.005560
 C          0.050962   -1.440340    0.005818
 S          6.312688   -0.248407    0.005901
 S          3.294137    2.753551   -0.014979
 C          2.666872   -1.229506    0.002586
 H          6.475793    3.437278   -0.019472
 H          0.070387   -2.525731    0.017114
 C         -7.120386   -1.340984    0.004198
 C         -6.169792   -2.397638    0.009818
 C         -4.865369   -1.946481    0.005474
 C         -4.744809   -0.526703   -0.005878
 C         -3.423944   -0.101910   -0.016914
 C         -2.516358   -1.184840   -0.000973
 C         -1.179407   -0.734691    0.004932
 C         -1.208206    0.705628    0.005569
 C         -0.050962    1.440340   -0.005804
 S         -6.312687    0.248407   -0.005892
 S         -3.294136   -2.753551    0.015001
 C         -2.666872    1.229506   -0.002582
 H         -6.475792   -3.437278    0.019476
 H         -0.070386    2.525731   -0.017099
 C          8.499483    1.638725   -0.012723
 C          9.656136    0.864649   -0.013925
 C          9.707707   -0.614042    0.000447
 O          8.763844   -1.398286    0.010883
 C         11.139282   -0.994686    0.000396
 C         11.673312   -2.272971    0.013041
 C         13.062466   -2.364993    0.010003
 C         13.883927   -1.238675   -0.004969
 C         13.322107    0.041117   -0.017797
 C         11.927708    0.170568   -0.015118
 C         11.028679    1.354162   -0.026568
 C         11.470853    2.674600   -0.048210
 C         12.849427    3.041642   -0.058155
 N         13.959966    3.397362   -0.066829
 C         10.619332    3.818994   -0.064903
 N          9.973320    4.790185   -0.079458
 H          8.654364    2.711133   -0.020022
 H         11.044685   -3.156711    0.024809
 H         14.960495   -1.371708   -0.006467
 H         13.981826    0.897575   -0.029214
 C         -8.499482   -1.638725    0.012718
 C         -9.656135   -0.864648    0.013923
 C         -9.707705    0.614043   -0.000444
 O         -8.763842    1.398287   -0.010873
 C        -11.139280    0.994688   -0.000397
 C        -11.673309    2.272973   -0.013038
 C        -13.062464    2.364996   -0.010009
 C        -13.883926    1.238678    0.004948
 C        -13.322106   -0.041114    0.017774
 C        -11.927707   -0.170566    0.015108
 C        -11.028678   -1.354161    0.026562
 C        -11.470853   -2.674598    0.048204
 C        -12.849427   -3.041640    0.058150
 N        -13.959966   -3.397360    0.066825
 C        -10.619332   -3.818993    0.064900
 N         -9.973320   -4.790184    0.079461
 H         -8.654364   -2.711132    0.020010
 H        -11.044682    3.156713   -0.024797
 H        -14.960493    1.371711    0.006436
 H        -13.981825   -0.897573    0.029180
 C          3.022191   -2.005206   -1.263138
 C          4.083705   -2.848325   -1.468865
 C          4.206329   -3.287044   -2.821965
 C          3.250314   -2.776518   -3.658346
 S          2.162186   -1.734792   -2.768443
 H          4.759779   -3.153409   -0.678600
 H          4.980304   -3.967866   -3.161824
 C          2.911727   -2.064161    1.254226
 C          2.779587   -3.417582    1.422918
 C          2.955908   -3.839739    2.775987
 C          3.215801   -2.816142    3.646865
 S          3.249391   -1.289903    2.791874
 H          2.567539   -4.097596    0.606311
 H          2.900741   -4.877012    3.091087
 C         -2.911722    2.064153   -1.254229
 C         -2.779575    3.417572   -1.422931
 C         -2.955893    3.839719   -2.776002
 C         -3.215793    2.816118   -3.646873
 S         -3.249391    1.289885   -2.791870
 H         -2.567522    4.097591   -0.606329
 H         -2.900720    4.876990   -3.091111
 C         -3.022193    2.005215    1.263135
 C         -4.083704    2.848340    1.468852
 C         -4.206334    3.287065    2.821950
 C         -3.250328    2.776537    3.658340
 S         -2.162200    1.734800    2.768448
 H         -4.759771    3.153425    0.678582
 H         -4.980307    3.967893    3.161801
 C          3.058071   -3.028962   -5.124149
 H          3.839805   -3.703787   -5.485877
 H          2.087169   -3.492761   -5.336135
 C          3.476376   -2.885959    5.122056
 H          3.402733   -3.924465    5.458887
 H          2.752944   -2.293185    5.694380
 C         -3.058094    3.028985    5.124142
 H         -3.839826    3.703815    5.485863
 H         -2.087190    3.492780    5.336133
 C         -3.476367    2.885925   -5.122065
 H         -3.402717    3.924428   -5.458904
 H         -2.752938    2.293143   -5.694384
 H         -4.477372    2.518347   -5.377865
 H         -3.114092    2.103431    5.709385
 H          3.114062   -2.103406   -5.709389
 H          4.477380   -2.518377    5.377859
 F        -13.635828    3.581916   -0.021926
 F         13.635831   -3.581913    0.021922
       114
S1: Total Energy = -6288.75767503
 C          7.124813    1.340097    0.012383
 C          6.181991    2.392703    0.018676
 C          4.870423    1.939735    0.017909
 C          4.751911    0.526236    0.012950
 C          3.422376    0.101458    0.018917
 C          2.523588    1.181769    0.016036
 C          1.178306    0.732883    0.005420
 C          1.206895   -0.704084   -0.014578
 C          0.046266   -1.439680   -0.013976
 S          6.316286   -0.248677    0.005245
 S          3.301273    2.747230    0.018012
 C          2.664431   -1.228010   -0.012321
 H          6.486424    3.432857    0.020489
 H          0.065226   -2.525027   -0.018344
 C         -7.124813   -1.340096   -0.012379
 C         -6.181991   -2.392702   -0.018671
 C         -4.870422   -1.939734   -0.017905
 C         -4.751911   -0.526235   -0.012947
 C         -3.422375   -0.101457   -0.018913
 C         -2.523588   -1.181768   -0.016032
 C         -1.178306   -0.732882   -0.005417
 C         -1.206894    0.704085    0.014582
 C         -0.046266    1.439681    0.013979
 S         -6.316286    0.248679   -0.005242
 S         -3.301273   -2.747229   -0.018009
 C         -2.664431    1.228011    0.012324
 H         -6.486424   -3.432856   -0.020484
 H         -0.065226    2.525028    0.018348
 C          8.511229    1.636708    0.005342
 C          9.663212    0.864383   -0.004049
 C          9.712407   -0.615615    0.001183
 O          8.766812   -1.397892    0.005588
 C         11.142763   -0.997927    0.001213
 C         11.674871   -2.276768    0.008327
 C         13.064286   -2.371205    0.007529
 C         13.887203   -1.245788   -0.000004
 C         13.327851    0.035173   -0.007579
 C         11.932815    0.167947   -0.007109
 C         11.039123    1.351650   -0.014698
 C         11.482708    2.673836   -0.033449
 C         12.860741    3.039807   -0.041961
 N         13.972331    3.394024   -0.049345
 C         10.631806    3.817482   -0.049705
 N          9.983615    4.787958   -0.063813
 H          8.665591    2.709396    0.008099
 H         11.044771   -3.159551    0.014409
 H         14.963625   -1.380609    0.000149
 H         13.988693    0.890841   -0.013127
 C         -8.511229   -1.636708   -0.005338
 C         -9.663212   -0.864383    0.004051
 C         -9.712409    0.615615   -0.001177
 O         -8.766814    1.397893   -0.005580
 C        -11.142765    0.997926   -0.001214
 C        -11.674874    2.276766   -0.008331
 C        -13.064289    2.371202   -0.007540
 C        -13.887205    1.245784   -0.000010
 C        -13.327852   -0.035176    0.007567
 C        -11.932816   -0.167949    0.007103
 C        -11.039123   -1.351652    0.014694
 C        -11.482706   -2.673838    0.033441
 C        -12.860739   -3.039811    0.041943
 N        -13.972328   -3.394030    0.049320
 C        -10.631803   -3.817482    0.049700
 N         -9.983610   -4.787957    0.063807
 H         -8.665590   -2.709395   -0.008092
 H        -11.044775    3.159550   -0.014409
 H        -14.963627    1.380604   -0.000168
 H        -13.988694   -0.890845    0.013112
 C          3.020791   -1.985499   -1.288043
 C          4.077674   -2.833046   -1.502309
 C          4.204023   -3.249746   -2.861355
 C          3.255527   -2.718419   -3.694246
 S          2.170778   -1.683254   -2.793168
 H          4.747932   -3.155511   -0.714079
 H          4.975088   -3.929886   -3.208896
 C          2.904196   -2.077257    1.229741
 C          2.777385   -3.433532    1.381655
 C          2.947974   -3.870260    2.730299
 C          3.198631   -2.855223    3.614613
 S          3.229648   -1.319112    2.778146
 H          2.572826   -4.105029    0.556163
 H          2.895352   -4.911207    3.033313
 C         -2.904196    2.077258   -1.229738
 C         -2.777386    3.433534   -1.381650
 C         -2.947975    3.870262   -2.730295
 C         -3.198631    2.855224   -3.614609
 S         -3.229647    1.319114   -2.778143
 H         -2.572827    4.105030   -0.556159
 H         -2.895353    4.911208   -3.033308
 C         -3.020791    1.985500    1.288047
 C         -4.077673    2.833046    1.502313
 C         -4.204022    3.249746    2.861359
 C         -3.255526    2.718420    3.694250
 S         -2.170777    1.683254    2.793172
 H         -4.747932    3.155512    0.714083
 H         -4.975087    3.929886    3.208900
 C          3.068929   -2.946044   -5.164620
 H          3.847544   -3.620589   -5.533367
 H          2.095697   -3.399251   -5.388456
 C          3.452060   -2.941578    5.090052
 H          3.381051   -3.984222    5.414278
 H          2.723426   -2.358289    5.665477
 C         -3.068928    2.946044    5.164624
 H         -3.847543    3.620589    5.533371
 H         -2.095696    3.399252    5.388460
 C         -3.452061    2.941580   -5.090048
 H         -3.381051    3.984224   -5.414274
 H         -2.723426    2.358292   -5.665474
 H         -4.450268    2.572891   -5.354901
 H         -3.134252    2.011498    5.734376
 H          3.134254   -2.011498   -5.734372
 H          4.450268   -2.572889    5.354905
 F        -13.635781    3.589419   -0.014427
 F         13.635776   -3.589422    0.014415
