       114
S0: Total Energy = -4500.03266472
 C         -5.242321    0.552647    0.066981
 C         -4.460926    1.725383    0.074275
 C         -3.090729    1.477223    0.062152
 C         -2.801240    0.115808    0.036536
 C         -1.374914   -0.103052    0.011101
 C         -0.758272    1.178793   -0.002668
 C          0.622669    1.288085   -0.008862
 S         -4.199742   -0.891034    0.033351
 C         -1.809498    2.312555    0.022405
 H          1.112376    2.257063   -0.010198
 C          5.242347   -0.552641   -0.067047
 C          4.460951   -1.725375   -0.074364
 C          3.090756   -1.477213   -0.062266
 C          2.801267   -0.115797   -0.036671
 C          1.374942    0.103064   -0.011249
 C          0.758299   -1.178780    0.002527
 C         -0.622641   -1.288073    0.008712
 S          4.199771    0.891044   -0.033478
 C          1.809524   -2.312544   -0.022527
 H         -1.112348   -2.257051    0.010046
 C         -1.829648    3.167401   -1.263997
 C         -2.577184    4.356064   -1.293736
 C         -2.686039    5.106972   -2.460858
 C         -2.053456    4.704918   -3.646672
 C         -1.316375    3.517322   -3.615328
 C         -1.205956    2.758713   -2.447106
 H         -3.073535    4.704082   -0.392373
 H         -3.273219    6.022645   -2.449935
 H         -0.817322    3.172799   -4.518228
 H         -0.629148    1.840129   -2.470604
 C         -1.587346    3.162976    1.291405
 C         -0.673562    4.227449    1.281503
 C         -0.400632    4.949836    2.441709
 C         -1.029812    4.642918    3.655679
 C         -1.936434    3.576674    3.663181
 C         -2.210398    2.847958    2.504900
 H         -0.176459    4.504581    0.356737
 H          0.313360    5.769452    2.400425
 H         -2.439824    3.308186    4.589281
 H         -2.916723    2.025200    2.555626
 C          1.587385   -3.162962   -1.291531
 C          0.673478   -4.227330   -1.281693
 C          0.400564   -4.949699   -2.441914
 C          1.029881   -4.642867   -3.655834
 C          1.936623   -3.576725   -3.663273
 C          2.210571   -2.848026   -2.504978
 H          0.176261   -4.504391   -0.356968
 H         -0.313526   -5.769232   -2.400681
 H          2.440121   -3.308304   -4.589334
 H          2.916992   -2.025346   -2.555654
 C          1.829663   -3.167388    1.263877
 C          2.577169   -4.356071    1.293610
 C          2.686019   -5.106979    2.460733
 C          2.053463   -4.704905    3.646555
 C          1.316415   -3.517289    3.615217
 C          1.206001   -2.758680    2.446995
 H          3.073497   -4.704106    0.392241
 H          3.273172   -6.022669    2.449804
 H          0.817384   -3.172749    4.518124
 H          0.629220   -1.840079    2.470500
 C         -2.152636    5.538779   -4.902263
 H         -1.505171    6.423637   -4.844180
 H         -1.850609    4.968079   -5.786069
 C         -0.758852    5.451749    4.902266
 H         -0.945820    4.865779    5.808055
 H          0.277314    5.805409    4.932600
 C          0.758935   -5.451682   -4.902435
 H         -0.277266   -5.805233   -4.932847
 H          0.946035   -4.865740   -5.808215
 C          2.152636   -5.538767    4.902146
 H          1.850643   -4.968055    5.785956
 H          1.505141   -6.423603    4.844076
 H         -3.174863    5.899349   -5.063366
 H         -1.405145    6.338432    4.948257
 H          1.405138   -6.338433   -4.948366
 H          3.174854   -5.899370    5.063233
 H          4.919821   -2.708092   -0.086330
 C          6.657577   -0.637405   -0.083449
 C          7.682604    0.288329   -0.080971
 H          6.968255   -1.677002   -0.100476
 C          7.517170    1.769084   -0.057079
 C          9.116610   -0.026118   -0.099535
 O          6.461064    2.392180   -0.040078
 C          8.881228    2.330741   -0.058536
 C          9.831087    1.259111   -0.083541
 C          9.753679   -1.256869   -0.128375
 C          9.441219    3.573288   -0.042555
 C         11.129499    1.704678   -0.086398
 C         11.177694   -1.348152   -0.142418
 C          9.093966   -2.520701   -0.148443
 S         11.173462    3.441025   -0.058510
 H          8.959391    4.541288   -0.022867
 H         12.055498    1.149295   -0.102704
 N         12.340187   -1.431100   -0.154155
 N          8.590527   -3.572154   -0.166473
 C         -6.657551    0.637412    0.083441
 C         -7.682588   -0.288314    0.080949
 H         -6.968210    1.677008    0.100593
 C         -7.517150   -1.769073    0.057020
 C         -9.116607    0.026114    0.099706
 O         -6.461050   -2.392173    0.039838
 C         -8.881202   -2.330742    0.058745
 C         -9.831064   -1.259123    0.083894
 C         -9.753770    1.256819    0.128551
 C         -9.441189   -3.573294    0.042959
 C        -11.129471   -1.704695    0.087058
 C        -11.177793    1.347940    0.142838
 C         -9.094209    2.520734    0.148380
 S        -11.173433   -3.441035    0.058848
 H         -8.959357   -4.541292    0.023271
 H        -12.055468   -1.149312    0.103577
 N        -12.340298    1.430689    0.154765
 N         -8.591028    3.572314    0.166246
 H         -4.919798    2.708098    0.086256
       114
T1: Total Energy = -4499.98588803
 C          5.227226    0.554144   -0.061051
 C          4.431170    1.740209   -0.070346
 C          3.078083    1.493247   -0.053004
 C          2.774177    0.112010   -0.023992
 C          1.383524   -0.101136   -0.003909
 C          0.745154    1.195548    0.002173
 C         -0.620710    1.300608   -0.000418
 S          4.191143   -0.898983   -0.022395
 C          1.797473    2.328639   -0.018122
 H         -1.116742    2.266116   -0.005666
 C         -5.227223   -0.554188    0.061024
 C         -4.431164   -1.740252    0.070325
 C         -3.078078   -1.493286    0.053011
 C         -2.774174   -0.112048    0.024013
 C         -1.383520    0.101099    0.003956
 C         -0.745150   -1.195584   -0.002124
 C          0.620714   -1.300645    0.000466
 S         -4.191142    0.898941    0.022397
 C         -1.797465   -2.328677    0.018156
 H          1.116745   -2.266154    0.005705
 C          1.817712    3.177768    1.271817
 C          2.552046    4.374592    1.302650
 C          2.660718    5.119015    2.473714
 C          2.042274    4.701695    3.661870
 C          1.319864    3.505024    3.629287
 C          1.209986    2.752432    2.457432
 H          3.038090    4.733667    0.400186
 H          3.236793    6.041621    2.464240
 H          0.833137    3.148337    4.534082
 H          0.645173    1.826352    2.480142
 C          1.580651    3.177838   -1.287790
 C          0.673126    4.247676   -1.279696
 C          0.403931    4.967704   -2.441959
 C          1.030552    4.652936   -3.655539
 C          1.930371    3.580990   -3.660809
 C          2.200224    2.853786   -2.500663
 H          0.178325    4.530553   -0.355510
 H         -0.304855    5.791831   -2.402886
 H          2.431018    3.306258   -4.586454
 H          2.901447    2.026551   -2.550107
 C         -1.580666   -3.177855    1.287843
 C         -0.672753   -4.247366    1.279959
 C         -0.403586   -4.967314    2.442280
 C         -1.030614   -4.652785    3.655710
 C         -1.930808   -3.581152    3.660776
 C         -2.200633   -2.854027    2.500575
 H         -0.177611   -4.530045    0.355896
 H          0.305506   -5.791185    2.403370
 H         -2.431772   -3.306604    4.586304
 H         -2.902151   -2.027033    2.549861
 C         -1.817681   -3.177790   -1.271795
 C         -2.552414   -4.374365   -1.302830
 C         -2.661071   -5.118719   -2.473940
 C         -2.042221   -4.701573   -3.661945
 C         -1.319425   -3.505140   -3.629168
 C         -1.209562   -2.752617   -2.457267
 H         -3.038793   -4.733298   -0.400491
 H         -3.237460   -6.041131   -2.464622
 H         -0.832383   -3.148585   -4.533846
 H         -0.644445   -1.826719   -2.479827
 C          2.141748    5.528571    4.921817
 H          1.483549    6.406048    4.873844
 H          1.853266    4.949005    5.804305
 C          0.763284    5.459470   -4.904218
 H          0.947149    4.870113   -5.808371
 H         -0.270967    5.818499   -4.935066
 C         -0.763365   -5.459240    4.904444
 H          0.271003   -5.817911    4.935534
 H         -0.947649   -4.869956    5.808560
 C         -2.141686   -5.528380   -4.921938
 H         -1.852823   -4.948883   -5.804346
 H         -1.483783   -6.406073   -4.873846
 H          3.160932    5.900072    5.076871
 H          1.414335    6.342501   -4.952324
 H         -1.414121   -6.342496    4.952386
 H         -3.160957   -5.899546   -5.077226
 H         -4.893399   -2.720830    0.086583
 C         -6.631231   -0.644953    0.080740
 C         -7.666244    0.290208    0.077961
 H         -6.944555   -1.682747    0.101465
 C         -7.503376    1.773877    0.049777
 C         -9.089400   -0.021882    0.101427
 O         -6.447161    2.397217    0.027973
 C         -8.866703    2.333969    0.054436
 C         -9.813204    1.259563    0.085099
 C         -9.724753   -1.262148    0.134756
 C         -9.428503    3.575403    0.037598
 C        -11.111172    1.700960    0.091434
 C        -11.146672   -1.356525    0.153149
 C         -9.066902   -2.524857    0.155309
 S        -11.161286    3.441518    0.059463
 H         -8.947508    4.543768    0.014150
 H        -12.035895    1.143729    0.112222
 N        -12.309525   -1.444077    0.168508
 N         -8.569909   -3.580218    0.173982
 C          6.631234    0.644905   -0.080803
 C          7.666244   -0.290260   -0.078013
 H          6.944561    1.682697   -0.101564
 C          7.503369   -1.773927   -0.049779
 C          9.089400    0.021823   -0.101499
 O          6.447151   -2.397262   -0.027961
 C          8.866695   -2.334025   -0.054408
 C          9.813200   -1.259624   -0.085107
 C          9.724758    1.262084   -0.134902
 C          9.428489   -3.575461   -0.037519
 C         11.111166   -1.701027   -0.091418
 C         11.146678    1.356457   -0.153290
 C          9.066913    2.524795   -0.155560
 S         11.161273   -3.441584   -0.059367
 H          8.947490   -4.543823   -0.014036
 H         12.035891   -1.143800   -0.112225
 N         12.309531    1.444009   -0.168642
 N          8.569925    3.580156   -0.174320
 H          4.893408    2.720786   -0.086619
       114
S1: Total Energy = -4499.96547674
 C          5.229921    0.556910   -0.062402
 C          4.441740    1.735898   -0.070113
 C          3.079963    1.486764   -0.052824
 C          2.782164    0.112289   -0.026023
 C          1.380893   -0.103330   -0.006582
 C          0.748364    1.190504    0.004198
 C         -0.622259    1.298031    0.004926
 S          4.193936   -0.895896   -0.025007
 C          1.800723    2.322226   -0.015769
 H         -1.115783    2.264770    0.004376
 C         -5.229921   -0.556909    0.062408
 C         -4.441740   -1.735897    0.070122
 C         -3.079963   -1.486763    0.052839
 C         -2.782164   -0.112288    0.026038
 C         -1.380893    0.103331    0.006603
 C         -0.748364   -1.190503   -0.004177
 C          0.622259   -1.298030   -0.004904
 S         -4.193936    0.895897    0.025010
 C         -1.800723   -2.322225    0.015789
 H          1.115783   -2.264769   -0.004354
 C          1.824794    3.168257    1.275460
 C          2.554902    4.367890    1.306146
 C          2.667131    5.108542    2.479130
 C          2.056524    4.684836    3.669252
 C          1.338402    3.485289    3.636744
 C          1.225507    2.736132    2.463340
 H          3.034593    4.731883    0.402293
 H          3.239769    6.033231    2.469842
 H          0.858145    3.123821    4.543041
 H          0.665343    1.807162    2.486316
 C          1.580574    3.169786   -1.285445
 C          0.681097    4.246397   -1.275567
 C          0.411043    4.964383   -2.438782
 C          1.028695    4.640713   -3.654903
 C          1.920177    3.561672   -3.661866
 C          2.190437    2.836117   -2.501019
 H          0.193665    4.536093   -0.349610
 H         -0.291101    5.794079   -2.398778
 H          2.413221    3.279977   -4.589435
 H          2.883813    2.002276   -2.551347
 C         -1.580578   -3.169782    1.285467
 C         -0.681112   -4.246403    1.275588
 C         -0.411061   -4.964388    2.438805
 C         -1.028704   -4.640708    3.654927
 C         -1.920175   -3.561658    3.661891
 C         -2.190432   -2.836104    2.501043
 H         -0.193687   -4.536107    0.349630
 H          0.291074   -5.794091    2.398800
 H         -2.413214   -3.279955    4.589461
 H         -2.883800   -2.002255    2.551370
 C         -1.824790   -3.168260   -1.275437
 C         -2.554873   -4.367908   -1.306111
 C         -2.667099   -5.108567   -2.479092
 C         -2.056514   -4.684852   -3.669222
 C         -1.338417   -3.485289   -3.636725
 C         -1.225525   -2.736126   -2.463325
 H         -3.034546   -4.731909   -0.402251
 H         -3.239717   -6.033268   -2.469795
 H         -0.858177   -3.123814   -4.543028
 H         -0.665381   -1.807145   -2.486310
 C          2.159854    5.507678    4.931301
 H          1.498268    6.382929    4.889459
 H          1.878057    4.924260    5.813365
 C          0.760576    5.445236   -4.904492
 H          0.935748    4.852000   -5.807793
 H         -0.271194    5.811609   -4.930951
 C         -0.760589   -5.445230    4.904518
 H          0.271174   -5.811620    4.930970
 H         -0.935745   -4.851988    5.807817
 C         -2.159839   -5.507700   -4.931267
 H         -1.878072   -4.924276   -5.813337
 H         -1.498226   -6.382932   -4.889433
 H          3.178495    5.882383    5.081956
 H          1.417730    6.323404   -4.958283
 H         -1.417757   -6.323387    4.958316
 H         -3.178471   -5.882436   -5.081905
 H         -4.901248   -2.717745    0.085544
 C         -6.642536   -0.644855    0.083055
 C         -7.671493    0.287870    0.080181
 H         -6.955042   -1.683118    0.104136
 C         -7.505846    1.770962    0.049117
 C         -9.099430   -0.021882    0.105520
 O         -6.447901    2.392432    0.025577
 C         -8.867589    2.332903    0.052792
 C         -9.817028    1.259633    0.086169
 C         -9.735930   -1.262182    0.143128
 C         -9.426384    3.575568    0.032878
 C        -11.114567    1.705130    0.091339
 C        -11.157404   -1.355531    0.163752
 C         -9.078037   -2.524064    0.166605
 S        -11.160406    3.446287    0.055137
 H         -8.942948    4.542663    0.007042
 H        -12.040469    1.149920    0.113448
 N        -12.320765   -1.441803    0.180996
 N         -8.577991   -3.578544    0.187575
 C          6.642536    0.644856   -0.083053
 C          7.671493   -0.287869   -0.080191
 H          6.955042    1.683120   -0.104130
 C          7.505847   -1.770961   -0.049133
 C          9.099429    0.021884   -0.105546
 O          6.447904   -2.392431   -0.025570
 C          8.867591   -2.332901   -0.052837
 C          9.817029   -1.259631   -0.086221
 C          9.735928    1.262185   -0.143144
 C          9.426386   -3.575566   -0.032941
 C         11.114568   -1.705127   -0.091414
 C         11.157401    1.355536   -0.163795
 C          9.078033    2.524068   -0.166575
 S         11.160408   -3.446284   -0.055224
 H          8.942951   -4.542661   -0.007102
 H         12.040469   -1.149916   -0.113533
 N         12.320761    1.441811   -0.181062
 N          8.577984    3.578547   -0.187511
 H          4.901248    2.717746   -0.085534
