       117
S0: Total Energy = -4974.43375123
 C         -6.466307    0.886678   -0.035692
 C         -5.741203    2.090948   -0.023560
 C         -4.363434    1.890788   -0.011580
 C         -3.987070    0.529581   -0.012964
 C         -2.586840    0.355019   -0.016119
 C         -1.924643    1.571512   -0.007686
 C         -0.493567    1.385031   -0.001288
 C         -0.262127   -0.017440    0.019535
 C          1.031379   -0.511176    0.021082
 S         -5.372457   -0.520571   -0.027902
 S         -2.970861    2.967976    0.000072
 C         -1.592110   -0.806711    0.014594
 H         -6.233511    3.056950   -0.023632
 H          1.228789   -1.578609    0.033158
 C          5.984064   -0.041429    0.050686
 C          5.562435    1.303649    0.040528
 C          4.178214    1.449754    0.032238
 C          3.517620    0.223911    0.025559
 C          2.087335    0.414236    0.006092
 C          1.855147    1.816552   -0.020797
 C          0.560082    2.310483   -0.017716
 S          4.577343   -1.134893    0.037507
 C          3.182062    2.610096   -0.018230
 H          0.363649    3.378298   -0.023962
 C         -7.884075    0.921932   -0.048828
 C         -8.875087   -0.039820   -0.061738
 C         -8.657402   -1.514659   -0.062819
 O         -7.580671   -2.100816   -0.054370
 C        -10.001215   -2.123343   -0.076517
 C        -10.517542   -3.384765   -0.083849
 C        -12.269933   -1.575621   -0.097033
 C        -10.987866   -1.085218   -0.083953
 C        -10.318919    0.224261   -0.075785
 C        -10.999190    1.432358   -0.082190
 C        -12.425436    1.474014   -0.095993
 N        -13.590146    1.516427   -0.107279
 C        -10.384058    2.718534   -0.077077
 N         -9.916068    3.786453   -0.073698
 H         -8.232713    1.949464   -0.049046
 H        -13.214765   -1.052704   -0.104930
 C         -1.826774   -1.614710    1.311306
 C         -2.799208   -2.625588    1.345921
 C         -3.085727   -3.306141    2.528106
 C         -2.414643   -3.007194    3.721049
 C         -1.452525   -1.991229    3.685169
 C         -1.163041   -1.305299    2.504888
 H         -3.333129   -2.895461    0.439844
 H         -3.846556   -4.083293    2.520171
 H         -0.917311   -1.727937    4.594785
 H         -0.413088   -0.521272    2.523412
 C         -1.635191   -1.683939   -1.254390
 C         -1.020058   -2.945361   -1.266379
 C         -0.977245   -3.711528   -2.428983
 C         -1.549132   -3.253948   -3.624423
 C         -2.156931   -1.994057   -3.610085
 C         -2.199034   -1.220665   -2.448537
 H         -0.578625   -3.340499   -0.356381
 H         -0.491929   -4.684753   -2.405095
 H         -2.607824   -1.606385   -4.520760
 H         -2.673760   -0.245061   -2.482972
 C          3.217008    3.509644    1.235541
 C          2.651313    4.792900    1.206111
 C          2.601022    5.581825    2.354268
 C          3.115354    5.124917    3.574878
 C          3.673227    3.841315    3.602055
 C          3.722923    3.046495    2.456285
 H          2.255361    5.187828    0.275289
 H          2.156242    6.572913    2.297740
 H          4.078022    3.453010    4.534001
 H          4.159990    2.054961    2.521785
 C          3.430668    3.403041   -1.320412
 C          4.486801    4.327111   -1.376948
 C          4.792209    4.997495   -2.558166
 C          4.056947    4.775542   -3.732021
 C          3.010973    3.849574   -3.674059
 C          2.701765    3.172449   -2.491537
 H          5.073044    4.531714   -0.485655
 H          5.617308    5.706323   -2.568102
 H          2.423764    3.648384   -4.567263
 H          1.886130    2.457062   -2.494324
 C         -2.703028   -3.770845    4.991944
 H         -2.109993   -4.693744    5.043827
 H         -2.459740   -3.177476    5.879332
 C         -1.530955   -4.104039   -4.872822
 H         -1.654704   -3.494519   -5.773716
 H         -0.592074   -4.661000   -4.964345
 C          3.093770    5.996893    4.808110
 H          2.223236    6.661421    4.813593
 H          3.069845    5.395847    5.723087
 C          4.375090    5.527210   -5.003002
 H          3.935882    5.037388   -5.877800
 H          3.982344    6.552021   -4.967852
 H         -3.757441   -4.060593    5.053905
 H         -2.344457   -4.841576   -4.862338
 H          3.987521    6.632942    4.859888
 H          5.456446    5.603221   -5.162833
 S        -12.253392   -3.312633   -0.100134
 H          6.278921    2.117927    0.038469
 H        -10.002434   -4.335674   -0.080993
 C          7.365405   -0.356028    0.066246
 C          8.091138   -1.531945    0.079974
 H          7.954811    0.555175    0.066369
 C          7.518324   -2.907086    0.085069
 C          9.555236   -1.629956    0.092746
 O          6.330033   -3.210764    0.079814
 C          8.671341   -3.827805    0.098925
 C          9.882697   -3.063735    0.103106
 C         10.511284   -0.625753    0.096272
 C          8.862169   -5.177290    0.108210
 C         11.005142   -3.853673    0.115682
 C         11.904182   -0.935243    0.109684
 C         10.231205    0.772201    0.088831
 S         10.562926   -5.533669    0.122242
 H          8.129522   -5.972805    0.107523
 H         12.049367   -3.578428    0.121360
 N         13.043856   -1.179302    0.120820
 N         10.042063    1.922701    0.084053
       117
T1: Total Energy = -4974.38797405
 C          6.449361    0.890066    0.028808
 C          5.707193    2.107159    0.013787
 C          4.345372    1.903986   -0.001361
 C          3.960911    0.528559    0.000282
 C          2.587503    0.352321    0.000187
 C          1.896798    1.591538   -0.011252
 C          0.503408    1.401733   -0.010412
 C          0.262338   -0.020060   -0.023496
 C         -1.018371   -0.510686   -0.013595
 S          5.364927   -0.522641    0.018300
 S          2.951511    2.990456   -0.017332
 C          1.593031   -0.808787   -0.027059
 H          6.201171    3.071745    0.014942
 H         -1.217855   -1.577550   -0.017274
 C         -5.963889   -0.046979   -0.040180
 C         -5.540745    1.312416   -0.031226
 C         -4.169607    1.461502   -0.019032
 C         -3.488624    0.227436   -0.010590
 C         -2.089115    0.419710    0.002027
 C         -1.848505    1.841400    0.021835
 C         -0.568641    2.333096    0.007363
 S         -4.556342   -1.143150   -0.023598
 C         -3.180261    2.627208    0.026363
 H         -0.370085    3.400330    0.007229
 C          7.857675    0.930477    0.047386
 C          8.856114   -0.042503    0.065126
 C          8.635738   -1.518069    0.064496
 O          7.555606   -2.099907    0.049672
 C          9.976075   -2.131395    0.085125
 C         10.489262   -3.393631    0.094941
 C         12.243268   -1.584882    0.117571
 C         10.963492   -1.093891    0.097875
 C         10.289924    0.214630    0.086350
 C         10.973106    1.430210    0.096372
 C         12.397369    1.470474    0.117061
 N         13.562800    1.513591    0.133962
 C         10.363488    2.716818    0.088694
 N          9.904755    3.789668    0.083440
 H          8.209714    1.955912    0.048406
 H         13.188755   -1.063396    0.130498
 C          1.825259   -1.604042   -1.331959
 C          2.795441   -2.616999   -1.377705
 C          3.079250   -3.283906   -2.567584
 C          2.408366   -2.968612   -3.757193
 C          1.449425   -1.950542   -3.709605
 C          1.163150   -1.276763   -2.521379
 H          3.329025   -2.898713   -0.475191
 H          3.837589   -4.063401   -2.569119
 H          0.915183   -1.674798   -4.615930
 H          0.416160   -0.489705   -2.531558
 C          1.643221   -1.690004    1.237952
 C          1.046319   -2.960009    1.242203
 C          1.007128   -3.728724    2.403237
 C          1.564223   -3.265064    3.603333
 C          2.152678   -1.995758    3.596266
 C          2.190298   -1.219248    2.437001
 H          0.616810   -3.359744    0.328568
 H          0.536718   -4.708981    2.374221
 H          2.590760   -1.603073    4.510902
 H          2.649824   -0.236490    2.477607
 C         -3.227011    3.524931   -1.227515
 C         -2.677158    4.815102   -1.199998
 C         -2.637088    5.601899   -2.349798
 C         -3.146126    5.135902   -3.569471
 C         -3.687720    3.845378   -3.594281
 C         -3.726664    3.052064   -2.447055
 H         -2.286422    5.216999   -0.270000
 H         -2.205116    6.598694   -2.295492
 H         -4.087771    3.450193   -4.525273
 H         -4.151545    2.055115   -2.510939
 C         -3.429200    3.413943    1.332182
 C         -4.484579    4.338631    1.392311
 C         -4.790141    5.002349    2.577065
 C         -4.056733    4.772124    3.750578
 C         -3.012530    3.844266    3.688989
 C         -2.703166    3.173510    2.503104
 H         -5.070072    4.548572    0.501930
 H         -5.614171    5.712234    2.590182
 H         -2.427602    3.636115    4.582007
 H         -1.889121    2.456266    2.503431
 C          2.696820   -3.717460   -5.036560
 H          2.143610   -4.665324   -5.074212
 H          2.405682   -3.134214   -5.915956
 C          1.550810   -4.117931    4.849674
 H          1.647694   -3.507605    5.753264
 H          0.625256   -4.698560    4.927482
 C         -3.135651    6.005855   -4.804131
 H         -2.268717    6.674978   -4.815329
 H         -3.113843    5.403505   -5.718221
 C         -4.375784    5.516396    5.025486
 H         -3.936867    5.021932    5.897746
 H         -3.983331    6.541458    4.995803
 H          3.760922   -3.961452   -5.125719
 H          2.382964   -4.834367    4.847900
 H         -4.033011    6.637069   -4.851438
 H         -5.457242    5.591177    5.184878
 S         12.226362   -3.326768    0.120396
 H         -6.262558    2.121447   -0.032446
 H          9.971307   -4.343019    0.089269
 C         -7.337949   -0.361300   -0.058128
 C         -8.063149   -1.549242   -0.071865
 H         -7.932841    0.545468   -0.060956
 C         -7.485305   -2.924161   -0.074853
 C         -9.518513   -1.653534   -0.087551
 O         -6.295293   -3.222776   -0.067319
 C         -8.633565   -3.849219   -0.090671
 C         -9.846785   -3.088048   -0.097935
 C        -10.480303   -0.646432   -0.093458
 C         -8.819367   -5.199136   -0.099717
 C        -10.965969   -3.880210   -0.112573
 C        -11.870839   -0.959627   -0.109693
 C        -10.207754    0.751488   -0.085853
 S        -10.519282   -5.562801   -0.117290
 H         -8.083286   -5.991501   -0.096999
 H        -12.010978   -3.608277   -0.120721
 N        -13.010733   -1.205511   -0.123160
 N        -10.029120    1.904331   -0.081057
       117
S1: Total Energy = -4974.36887172
 C          6.452756    0.889880    0.022026
 C          5.720054    2.099197    0.005674
 C          4.348698    1.895604   -0.008316
 C          3.969630    0.527269   -0.004315
 C          2.585137    0.351846   -0.002815
 C          1.904486    1.584223   -0.015049
 C          0.500979    1.396833   -0.012267
 C          0.261837   -0.020951   -0.025317
 C         -1.022627   -0.512805   -0.015720
 S          5.368126   -0.522243    0.014292
 S          2.956618    2.980255   -0.024114
 C          1.591747   -0.808786   -0.027757
 H          6.212028    3.064871    0.005446
 H         -1.221773   -1.579635   -0.020030
 C         -5.968734   -0.041766   -0.037438
 C         -5.547027    1.310958   -0.029258
 C         -4.168989    1.457693   -0.018326
 C         -3.495328    0.226053   -0.009975
 C         -2.087895    0.416790    0.000529
 C         -1.848417    1.835440    0.020685
 C         -0.564910    2.327569    0.006320
 S         -4.563289   -1.140623   -0.021623
 C         -3.178928    2.621987    0.024789
 H         -0.366428    3.394752    0.007047
 C          7.870473    0.927981    0.041904
 C          8.862783   -0.040523    0.063008
 C          8.641141   -1.516336    0.061005
 O          7.560311   -2.097159    0.042376
 C          9.980521   -2.129727    0.085146
 C         10.491816   -3.392741    0.095683
 C         12.249628   -1.586877    0.124699
 C         10.969914   -1.092675    0.101516
 C         10.302311    0.215349    0.089002
 C         10.985277    1.430673    0.103089
 C         12.409271    1.471248    0.128352
 N         13.574951    1.514162    0.148845
 C         10.374271    2.716200    0.096070
 N          9.911277    3.787653    0.091575
 H          8.220696    1.954342    0.041775
 H         13.195793   -1.066731    0.140680
 C          1.825531   -1.603910   -1.331907
 C          2.790592   -2.621948   -1.375203
 C          3.075336   -3.288278   -2.565017
 C          2.410576   -2.967485   -3.756904
 C          1.457028   -1.944103   -3.711703
 C          1.170277   -1.270402   -2.523798
 H          3.319197   -2.907762   -0.471099
 H          3.829417   -4.071837   -2.565018
 H          0.928083   -1.663992   -4.619732
 H          0.428624   -0.478254   -2.535920
 C          1.639198   -1.686202    1.239607
 C          1.046757   -2.958339    1.246261
 C          1.006543   -3.722699    2.410023
 C          1.558121   -3.252436    3.610276
 C          2.141963   -1.980903    3.600639
 C          2.180303   -1.208534    2.438810
 H          0.621791   -3.363045    0.332705
 H          0.539781   -4.704727    2.383263
 H          2.575422   -1.583336    4.515322
 H          2.635311   -0.223526    2.477031
 C         -3.223254    3.515538   -1.231899
 C         -2.678531    4.807984   -1.207767
 C         -2.637945    5.589928   -2.360766
 C         -3.141278    5.116642   -3.580229
 C         -3.677475    3.823772   -3.601555
 C         -3.716603    3.035089   -2.451250
 H         -2.292682    5.215462   -0.278163
 H         -2.210362    6.588750   -2.309407
 H         -4.072781    3.423121   -4.532187
 H         -4.136402    2.035758   -2.512092
 C         -3.427267    3.410183    1.329314
 C         -4.479262    4.339004    1.387543
 C         -4.784273    5.003674    2.571840
 C         -4.053674    4.770571    3.746594
 C         -3.012922    3.838449    3.686906
 C         -2.704399    3.166418    2.501761
 H         -5.062437    4.551182    0.496213
 H         -5.605706    5.716532    2.583705
 H         -2.430575    3.627906    4.581017
 H         -1.893772    2.445225    2.503824
 C          2.700314   -3.715866   -5.036039
 H          2.148272   -4.664419   -5.073426
 H          2.408644   -3.133108   -5.915517
 C          1.543389   -4.100723    4.859582
 H          1.641283   -3.487362    5.760953
 H          0.616993   -4.679728    4.939376
 C         -3.130239    5.981645   -4.818236
 H         -2.261791    6.648747   -4.833098
 H         -3.111149    5.375696   -5.729955
 C         -4.372074    5.515871    5.020932
 H         -3.937412    5.019179    5.894030
 H         -3.974692    6.539071    4.992237
 H          3.764719   -3.958699   -5.124745
 H          2.374453   -4.818407    4.860059
 H         -4.026166    6.614797   -4.866581
 H         -5.453510    5.595742    5.177786
 S         12.229566   -3.328722    0.126317
 H         -6.265873    2.122521   -0.030265
 H          9.972409   -4.341327    0.087921
 C         -7.349052   -0.357372   -0.053903
 C         -8.072634   -1.541902   -0.068482
 H         -7.942069    0.550754   -0.054845
 C         -7.495068   -2.917478   -0.075456
 C         -9.530397   -1.647180   -0.082626
 O         -6.304658   -3.216265   -0.069702
 C         -8.643120   -3.841447   -0.092234
 C         -9.856998   -3.079417   -0.096206
 C        -10.491814   -0.637359   -0.084564
 C         -8.828443   -5.191302   -0.104305
 C        -10.976213   -3.872662   -0.111449
 C        -11.882137   -0.948460   -0.100118
 C        -10.217518    0.759360   -0.073058
 S        -10.528997   -5.556273   -0.120812
 H         -8.091901   -5.983254   -0.104334
 H        -12.021229   -3.600810   -0.117719
 N        -13.022905   -1.192657   -0.112990
 N        -10.036335    1.912370   -0.064970
