       105
S0: Total Energy = -6257.45576097
 C         -6.488227    0.798967    0.013073
 C         -5.782199    2.014401    0.017396
 C         -4.400903    1.835233    0.012140
 C         -4.006915    0.479953    0.000975
 C         -2.605155    0.328855   -0.015032
 C         -1.956193    1.551617   -0.002238
 C         -0.521586    1.379803    0.005778
 C         -0.272733   -0.018947    0.012033
 C          1.020704   -0.510973    0.002906
 S         -5.373362   -0.592004    0.003257
 S         -3.022304    2.931433    0.017496
 C         -1.596701   -0.823927    0.002304
 H         -6.289531    2.972569    0.025580
 H          1.216344   -1.578959   -0.003932
 C          5.975660    0.014483   -0.000081
 C          5.538265    1.353373    0.010496
 C          4.152238    1.476849    0.020476
 C          3.504383    0.245493    0.007592
 C          2.070352    0.420866   -0.000723
 C          1.820797    1.819515   -0.007017
 C          0.525811    2.311428    0.001792
 S          4.582735   -1.097612   -0.008026
 C          3.142384    2.629061    0.000581
 H          0.330306    3.379419    0.008850
 C         -1.787318   -1.660876    1.264932
 C         -2.660205   -2.697925    1.468473
 C         -2.685341   -3.162975    2.818770
 C         -1.842355   -2.481783    3.654350
 S         -0.985661   -1.240014    2.767492
 H         -3.267269   -3.124311    0.678151
 H         -3.308677   -3.985036    3.156340
 C         -1.666994   -1.690353   -1.250553
 C         -1.246132   -2.982445   -1.424425
 C         -1.338940   -3.431966   -2.777370
 C         -1.822948   -2.488672   -3.642739
 S         -2.180349   -1.007241   -2.782363
 H         -0.884267   -3.600549   -0.611189
 H         -1.061673   -4.432042   -3.095817
 C          3.211612    3.503542    1.247882
 C          2.765633    4.787750    1.417658
 C          2.867277    5.251327    2.765388
 C          3.383546    4.326267    3.631686
 S          3.762983    2.845910    2.777985
 H          2.381573    5.391635    0.603731
 H          2.573531    6.248219    3.079169
 C          3.331524    3.463902   -1.263635
 C          4.212833    4.492433   -1.470862
 C          4.237958    4.956702   -2.821398
 C          3.385782    4.282903   -3.653984
 S          2.521117    3.049447   -2.763010
 H          4.828230    4.910244   -0.682225
 H          4.867157    5.773152   -3.162021
 C         -1.594319   -2.702575    5.117027
 H         -2.223297   -3.522786    5.476510
 H         -0.549070   -2.965070    5.320476
 C         -2.073132   -2.611400   -5.116416
 H         -1.776771   -3.608157   -5.457418
 H         -1.500831   -1.874188   -5.692126
 C          3.134469    4.505531   -5.115871
 H          3.771491    5.318141   -5.478487
 H          2.091589    4.780152   -5.315627
 C          3.651324    4.466907    5.100706
 H          3.338775    5.460108    5.437637
 H          3.102698    3.722756    5.690378
 H          4.716261    4.351050    5.335946
 H          3.357415    3.611733   -5.710783
 H         -1.830057   -1.811773    5.711495
 H         -3.132108   -2.471191   -5.364893
 H          6.239914    2.180488    0.008322
 C         -7.906801    0.812118    0.020051
 C         -8.882552   -0.164738    0.020799
 H         -8.271171    1.834145    0.025215
 C         -8.642225   -1.636233    0.014525
 C        -10.330717    0.076859    0.027783
 O         -7.556590   -2.205718    0.008602
 C         -9.976469   -2.265464    0.017113
 C        -10.979140   -1.242815    0.025095
 C        -11.029465    1.274105    0.035665
 C        -10.473234   -3.534772    0.013971
 C        -12.253530   -1.753109    0.028043
 C        -12.456296    1.293686    0.041423
 C        -10.434212    2.569644    0.038863
 S        -12.209996   -3.489529    0.020888
 H         -9.943495   -4.477592    0.008014
 H        -13.206364   -1.244893    0.033751
 N        -13.621543    1.318147    0.046095
 N         -9.982811    3.644649    0.041639
 C          7.362135   -0.282532   -0.005225
 C          8.102097   -1.448388   -0.017476
 H          7.939359    0.636375    0.001413
 C          7.546090   -2.830780   -0.028076
 C          9.568029   -1.528907   -0.022306
 O          6.361492   -3.147984   -0.028260
 C          8.710117   -3.737148   -0.038563
 C          9.912232   -2.958475   -0.035101
 C         10.511285   -0.513313   -0.016910
 C          8.917401   -5.084278   -0.050507
 C         11.044218   -3.734869   -0.044570
 C         11.908019   -0.805804   -0.023603
 C         10.213953    0.881147   -0.004850
 S         10.622266   -5.419780   -0.057719
 H          8.194487   -5.888629   -0.055482
 H         12.085072   -3.447033   -0.044884
 N         13.050565   -1.035979   -0.028949
 N         10.011100    2.029212    0.004910
       105
T1: Total Energy = -6257.40937003
 C          6.470493    0.801382   -0.015329
 C          5.747311    2.030475   -0.020248
 C          4.382402    1.848538   -0.019798
 C          3.979648    0.478623   -0.012646
 C          2.604883    0.325532   -0.003152
 C          1.927655    1.571472   -0.015250
 C          0.531185    1.395961   -0.016789
 C          0.272050   -0.022211   -0.019751
 C         -1.008864   -0.510712   -0.004920
 S          5.364104   -0.595096   -0.012886
 S          3.002418    2.953947   -0.027579
 C          1.596519   -0.827138   -0.018431
 H          6.256690    2.987030   -0.025269
 H         -1.206704   -1.578101    0.004464
 C         -5.956873    0.008698    0.007918
 C         -5.517033    1.361938   -0.001814
 C         -4.144415    1.488650   -0.010682
 C         -3.476329    0.248414   -0.000454
 C         -2.073345    0.425879    0.001062
 C         -1.814707    1.843660    0.004588
 C         -0.534785    2.333236   -0.011045
 S         -4.562793   -1.106135    0.013874
 C         -3.140760    2.646236    0.004715
 H         -0.337474    3.400743   -0.021244
 C          1.785893   -1.652515   -1.288242
 C          2.658337   -2.688579   -1.501958
 C          2.684124   -3.138082   -2.856550
 C          1.843186   -2.445525   -3.685885
 S          0.988405   -1.211814   -2.787593
 H          3.264990   -3.124016   -0.716402
 H          3.305969   -3.957540   -3.202717
 C          1.673026   -1.698261    1.229639
 C          1.269874   -2.997646    1.393532
 C          1.357506   -3.451599    2.744703
 C          1.819257   -2.504869    3.618973
 S          2.160783   -1.013935    2.769470
 H          0.923402   -3.617137    0.574830
 H          1.092901   -4.457165    3.056169
 C         -3.220572    3.520795   -1.241040
 C         -2.803986    4.815769   -1.405019
 C         -2.903402    5.277662   -2.753064
 C         -3.388013    4.340782   -3.625414
 S         -3.739340    2.850811   -2.777425
 H         -2.442168    5.427765   -0.587118
 H         -2.631482    6.281774   -3.063231
 C         -3.331043    3.475033    1.272231
 C         -4.227004    4.489726    1.487559
 C         -4.250249    4.950240    2.838723
 C         -3.382712    4.286959    3.664417
 S         -2.505584    3.068599    2.765554
 H         -4.854730    4.899175    0.704314
 H         -4.889217    5.756361    3.185417
 C          1.595384   -2.651010   -5.150670
 H          2.224931   -3.466889   -5.518616
 H          0.550287   -2.912035   -5.356381
 C          2.060002   -2.631130    5.093783
 H          1.773815   -3.633073    5.427906
 H          1.474147   -1.903650    5.668095
 C         -3.124649    4.510552    5.124852
 H         -3.773097    5.311023    5.493949
 H         -2.085275    4.802867    5.317453
 C         -3.645947    4.476901   -5.096561
 H         -3.352943    5.477235   -5.429746
 H         -3.075625    3.745774   -5.681838
 H         -4.705926    4.337324   -5.340841
 H         -3.327667    3.611460    5.718820
 H          1.830453   -1.753574   -5.735206
 H          3.115289   -2.478642    5.350230
 H         -6.224279    2.183804    0.001192
 C          7.879050    0.819486   -0.015229
 C          8.861926   -0.169567   -0.013208
 H          8.247443    1.839130   -0.016439
 C          8.617918   -1.641585   -0.013611
 C         10.299917    0.064446   -0.011174
 O          7.528503   -2.205949   -0.016232
 C          9.948335   -2.276227   -0.010921
 C         10.952390   -1.254772   -0.009682
 C         11.002505    1.268835   -0.010390
 C         10.441292   -3.546579   -0.009505
 C         12.224261   -1.766298   -0.007354
 C         12.427409    1.286272   -0.008427
 C         10.413553    2.565084   -0.011318
 S         12.179338   -3.507594   -0.006607
 H          9.908205   -4.487572   -0.009791
 H         13.178093   -1.260093   -0.006016
 N         13.593474    1.310810   -0.006825
 N          9.972153    3.645153   -0.012008
 C         -7.335411   -0.287422    0.013227
 C         -8.075961   -1.465187    0.025435
 H         -7.917985    0.627275    0.006766
 C         -7.515714   -2.847353    0.035875
 C         -9.532982   -1.550791    0.029975
 O         -6.329528   -3.160518    0.036385
 C         -8.675772   -3.757595    0.045638
 C         -9.879219   -2.980963    0.042130
 C        -10.481554   -0.531682    0.024851
 C         -8.879038   -5.105029    0.056974
 C        -11.008580   -3.758722    0.050962
 C        -11.876146   -0.827011    0.031098
 C        -10.190960    0.862660    0.013746
 S        -10.583521   -5.446639    0.063588
 H         -8.153303   -5.906869    0.061831
 H        -12.050050   -3.473390    0.051096
 N        -13.019124   -1.058272    0.036068
 N         -9.997791    2.013079    0.004813
       105
S1: Total Energy = -6257.39075019
 C          6.475801    0.800698   -0.014630
 C          5.761440    2.021182   -0.020730
 C          4.386921    1.838375   -0.019054
 C          3.989782    0.475909   -0.009675
 C          2.603573    0.323910    0.001153
 C          1.936171    1.562860   -0.011897
 C          0.529431    1.390567   -0.011690
 C          0.271575   -0.023607   -0.015230
 C         -1.013185   -0.513666   -0.002471
 S          5.369003   -0.595416   -0.008479
 S          3.008391    2.942066   -0.026848
 C          1.595379   -0.827016   -0.012508
 H          6.268219    2.979196   -0.027509
 H         -1.210553   -1.581057    0.005144
 C         -5.962528    0.015055    0.006920
 C         -5.523296    1.361126   -0.002412
 C         -4.143588    1.484409   -0.010093
 C         -3.482825    0.246466    0.000883
 C         -2.072118    0.421882    0.002713
 C         -1.813811    1.836839    0.007526
 C         -0.530189    2.327017   -0.005979
 S         -4.570566   -1.103580    0.014548
 C         -3.138801    2.639559    0.005932
 H         -0.333079    3.394531   -0.014066
 C          1.787348   -1.650743   -1.281878
 C          2.655357   -2.692041   -1.493245
 C          2.687055   -3.136711   -2.848243
 C          1.854750   -2.435933   -3.681064
 S          1.002497   -1.199678   -2.785063
 H          3.255364   -3.132725   -0.705593
 H          3.306526   -3.958116   -3.193789
 C          1.666810   -1.693317    1.238134
 C          1.277795   -2.997431    1.403807
 C          1.357533   -3.443615    2.757176
 C          1.799872   -2.486707    3.631763
 S          2.131259   -0.995718    2.779549
 H          0.946313   -3.624655    0.584856
 H          1.101190   -4.450410    3.071310
 C         -3.213294    3.511470   -1.241099
 C         -2.808161    4.810383   -1.405440
 C         -2.900312    5.266466   -2.755436
 C         -3.368309    4.321389   -3.629071
 S         -3.711733    2.830922   -2.780005
 H         -2.459359    5.428608   -0.586612
 H         -2.635402    6.271974   -3.066992
 C         -3.331926    3.465977    1.273700
 C         -4.223595    4.486039    1.487015
 C         -4.252547    4.941395    2.838917
 C         -3.393532    4.269724    3.667871
 S         -2.518479    3.048925    2.770549
 H         -4.844407    4.901456    0.701488
 H         -4.889366    5.749361    3.185042
 C          1.614025   -2.637092   -5.147301
 H          2.244586   -3.452325   -5.514696
 H          0.569574   -2.896540   -5.358249
 C          2.028506   -2.604420    5.108959
 H          1.746465   -3.606634    5.445545
 H          1.432804   -1.877912    5.674229
 C         -3.142695    4.487512    5.130134
 H         -3.791158    5.288029    5.498908
 H         -2.103540    4.776607    5.328788
 C         -3.615731    4.451238   -5.102452
 H         -3.325792    5.451989   -5.436909
 H         -3.037150    3.721010   -5.680642
 H         -4.673095    4.304838   -5.353896
 H         -3.350503    3.586440    5.719380
 H          1.852181   -1.737814   -5.727670
 H          3.080504   -2.443100    5.373376
 H         -6.226951    2.185975   -0.000674
 C          7.893368    0.816005   -0.016889
 C          8.870618   -0.168439   -0.014032
 H          8.259940    1.836634   -0.020940
 C          8.625607   -1.640156   -0.007993
 C         10.313950    0.064787   -0.015706
 O          7.535697   -2.204299   -0.007008
 C          9.955388   -2.274918   -0.004002
 C         10.961195   -1.253834   -0.008724
 C         11.016592    1.268702   -0.022851
 C         10.446709   -3.545840    0.002518
 C         12.233091   -1.768111   -0.005687
 C         12.441310    1.286519   -0.022928
 C         10.426300    2.563916   -0.030994
 S         12.185543   -3.509335    0.003094
 H          9.912397   -4.486134    0.007096
 H         13.187458   -1.262935   -0.007827
 N         13.607677    1.311028   -0.022967
 N          9.980484    3.642563   -0.037801
 C         -7.347097   -0.281966    0.009819
 C         -8.086953   -1.456301    0.020749
 H         -7.927462    0.634223    0.001999
 C         -7.527976   -2.839138    0.032305
 C         -9.545800   -1.541750    0.021567
 O         -6.341633   -3.153770    0.036713
 C         -8.688415   -3.747937    0.037518
 C         -9.891867   -2.969611    0.031151
 C        -10.493741   -0.519317    0.015373
 C         -8.892091   -5.095142    0.046813
 C        -11.021779   -3.747514    0.035732
 C        -11.888210   -0.811686    0.017626
 C        -10.200762    0.873630    0.007252
 S        -10.597587   -5.437063    0.047848
 H         -8.166435   -5.897054    0.053051
 H        -12.063004   -3.461425    0.032989
 N        -13.032278   -1.040307    0.019283
 N        -10.004562    2.024179    0.000691
