       120
S0: Total Energy = -5448.83471736
 C          7.156590   -1.243235   -0.054885
 C          6.233793   -2.304325   -0.068419
 C          4.911693   -1.869886   -0.044501
 C          4.775534   -0.464373   -0.010510
 C          3.426903   -0.050656   -0.003905
 C          2.563886   -1.133915   -0.024571
 C          1.186382   -0.702385   -0.012031
 C          1.201421    0.717131    0.042482
 C          0.012997    1.429194    0.051224
 S          6.321228    0.331048   -0.006824
 S          3.353398   -2.689949   -0.054477
 C          2.647651    1.264323    0.061050
 H          6.551408   -3.340696   -0.095080
 H          0.005788    2.514261    0.085647
 C         -7.156580    1.243222    0.054892
 C         -6.233777    2.304306    0.068406
 C         -4.911680    1.869863    0.044461
 C         -4.775526    0.464349    0.010462
 C         -3.426896    0.050628    0.003840
 C         -2.563876    1.133885    0.024501
 C         -1.186374    0.702354    0.011952
 C         -1.201413   -0.717161   -0.042564
 C         -0.012989   -1.429225   -0.051305
 S         -6.321225   -0.331064    0.006788
 S         -3.353383    2.689921    0.054418
 C         -2.647645   -1.264353   -0.061128
 H         -6.551388    3.340679    0.095081
 H         -0.005779   -2.514291   -0.085725
 C          8.546513   -1.520747   -0.077684
 C          9.688706   -0.743262   -0.072714
 C          9.728466    0.746177   -0.033112
 O          8.769204    1.509216   -0.003036
 C         11.157151    1.114582   -0.037466
 C         11.883099    2.267884   -0.013411
 C         13.297350    0.184806   -0.085514
 C         11.950015   -0.077332   -0.078566
 C         11.064902   -1.251546   -0.102863
 C         11.527202   -2.558209   -0.147840
 C         12.924883   -2.844399   -0.170066
 N         14.064895   -3.086529   -0.188238
 C         10.699973   -3.718907   -0.177616
 N         10.055600   -4.690334   -0.203516
 H          8.714014   -2.592418   -0.106082
 H         14.137737   -0.492851   -0.113041
 C         -8.546501    1.520746    0.077737
 C         -9.688711    0.743284    0.072800
 C         -9.728517   -0.746154    0.033197
 O         -8.769281   -1.509223    0.003055
 C        -11.157213   -1.114515    0.037560
 C        -11.883197   -2.267796    0.013499
 C        -13.297383   -0.184676    0.085694
 C        -11.950040    0.077421    0.078704
 C        -11.064891    1.251607    0.103005
 C        -11.527144    2.558284    0.148027
 C        -12.924814    2.844524    0.170300
 N        -14.064817    3.086697    0.188508
 C        -10.699869    3.718949    0.177806
 N        -10.055449    4.690345    0.203699
 H         -8.713985    2.592419    0.106149
 H        -14.137749    0.493005    0.113272
 C          3.011031    1.978668    1.382977
 C          4.150111    2.795199    1.453290
 C          4.543992    3.376603    2.657207
 C          3.818623    3.168503    3.837724
 C          2.688448    2.346058    3.766003
 C          2.290601    1.759877    2.563609
 H          4.733435    2.990600    0.558622
 H          5.433351    4.002361    2.676560
 H          2.105642    2.157031    4.664757
 H          1.410965    1.124659    2.554797
 C          2.849193    2.158748   -1.180103
 C          2.479471    3.511996   -1.150058
 C          2.577004    4.307823   -2.289734
 C          3.049944    3.788558   -3.502636
 C          3.411935    2.437185   -3.530541
 C          3.312986    1.635063   -2.392641
 H          2.122279    3.954833   -0.225177
 H          2.282354    5.353414   -2.233288
 H          3.779437    1.999920   -4.456136
 H          3.597513    0.589573   -2.459112
 C         -2.849180   -2.158788    1.180019
 C         -2.479563   -3.512063    1.149919
 C         -2.577093   -4.307911    2.289581
 C         -3.049928   -3.788640    3.502522
 C         -3.411818   -2.437241    3.530480
 C         -3.312871   -1.635098    2.392594
 H         -2.122457   -3.954905    0.225007
 H         -2.282526   -5.353523    2.233093
 H         -3.779238   -1.999972    4.456104
 H         -3.597318   -0.589590    2.459106
 C         -3.011034   -1.978694   -1.383054
 C         -4.150034   -2.795342   -1.453316
 C         -4.543928   -3.376760   -2.657222
 C         -3.818652   -3.168558   -3.837778
 C         -2.688555   -2.346002   -3.766106
 C         -2.290695   -1.759807   -2.563723
 H         -4.733281   -2.990828   -0.558617
 H         -5.433223   -4.002609   -2.676535
 H         -2.105821   -2.156897   -4.664891
 H         -1.411122   -1.124502   -2.554951
 C          4.229511    3.827439    5.133320
 H          3.823468    4.845148    5.207671
 H          3.864796    3.267293    6.000470
 C          3.189406    4.664230   -4.725442
 H          3.135690    4.075967   -5.647294
 H          2.405690    5.428524   -4.762263
 C         -3.189389   -4.664331    4.725314
 H         -2.405721   -5.428678    4.762079
 H         -3.135588   -4.076094    5.647177
 C         -4.229551   -3.827508   -5.133364
 H         -3.864937   -3.267311   -6.000524
 H         -3.823417   -4.845177   -5.207758
 H          5.318914    3.908054    5.213097
 H          4.154025    5.189070   -4.729238
 H         -4.154042   -5.189108    4.729145
 H         -5.318951   -3.908224   -5.213081
 S        -13.580841   -1.898138    0.041190
 S         13.580754    1.898279   -0.041160
 H        -11.539574   -3.292731   -0.017907
 H         11.539445    3.292810    0.017976
       120
T1: Total Energy = -5448.78962307
 C          7.136319    1.248139    0.046373
 C          6.196925    2.314451    0.057776
 C          4.888059    1.876939    0.032697
 C          4.750595    0.458979   -0.000596
 C          3.424658    0.045315   -0.009164
 C          2.532806    1.140978    0.009613
 C          1.189905    0.710188    0.003930
 C          1.201676   -0.729387   -0.044644
 C          0.027009   -1.437887   -0.044328
 S          6.313004   -0.331202   -0.002479
 S          3.326934    2.702067    0.039645
 C          2.650013   -1.271588   -0.069654
 H          6.513593    3.350644    0.084363
 H          0.018995   -2.522890   -0.073155
 C         -7.136313   -1.248166   -0.046386
 C         -6.196920   -2.314478   -0.057796
 C         -4.888053   -1.876967   -0.032718
 C         -4.750588   -0.459006    0.000581
 C         -3.424651   -0.045341    0.009145
 C         -2.532798   -1.141005   -0.009633
 C         -1.189898   -0.710214   -0.003951
 C         -1.201669    0.729361    0.044625
 C         -0.027002    1.437861    0.044306
 S         -6.312997    0.331175    0.002467
 S         -3.326928   -2.702093   -0.039671
 C         -2.650006    1.271562    0.069636
 H         -6.513589   -3.350671   -0.084385
 H         -0.018987    2.522864    0.073132
 C          8.518514    1.530565    0.072486
 C          9.669051    0.747196    0.071025
 C          9.709196   -0.742921    0.031104
 O          8.747942   -1.504791   -0.002958
 C         11.136416   -1.113505    0.040786
 C         11.861682   -2.266783    0.019316
 C         13.274059   -0.181666    0.096895
 C         11.928065    0.079317    0.084963
 C         11.037475    1.250622    0.105810
 C         11.498998    2.564508    0.152480
 C         12.894766    2.851509    0.179516
 N         14.034965    3.095880    0.201639
 C         10.674202    3.724960    0.179357
 N         10.034139    4.700196    0.203202
 H          8.687047    2.601373    0.100532
 H         14.114069    0.496231    0.127641
 C         -8.518508   -1.530590   -0.072492
 C         -9.669043   -0.747217   -0.071017
 C         -9.709183    0.742900   -0.031084
 O         -8.747926    1.504766    0.002974
 C        -11.136401    1.113489   -0.040753
 C        -11.861664    2.266769   -0.019269
 C        -13.274049    0.181657   -0.096841
 C        -11.928055   -0.079331   -0.084927
 C        -11.037469   -1.250638   -0.105789
 C        -11.498998   -2.564522   -0.152458
 C        -12.894768   -2.851518   -0.179473
 N        -14.034969   -3.095882   -0.201583
 C        -10.674208   -3.724978   -0.179338
 N        -10.034150   -4.700218   -0.203189
 H         -8.687045   -2.601397   -0.100541
 H        -14.114061   -0.496237   -0.127579
 C          3.011576   -1.976961   -1.396799
 C          4.147201   -2.797665   -1.473368
 C          4.538502   -3.368980   -2.682633
 C          3.814582   -3.145810   -3.861636
 C          2.688626   -2.318210   -3.783166
 C          2.293647   -1.741071   -2.575620
 H          4.729546   -3.003705   -0.580612
 H          5.424777   -3.998694   -2.707758
 H          2.107902   -2.117004   -4.680489
 H          1.417796   -1.100608   -2.562092
 C          2.860593   -2.165231    1.169833
 C          2.504464   -3.521953    1.137261
 C          2.607796   -4.317052    2.276784
 C          3.073027   -3.793476    3.490964
 C          3.420525   -2.438300    3.520942
 C          3.314892   -1.636399    2.383630
 H          2.153883   -3.967866    0.211392
 H          2.324413   -5.365591    2.219158
 H          3.781168   -1.997811    4.447573
 H          3.588538   -0.588062    2.452276
 C         -2.860589    2.165215   -1.169845
 C         -2.504722    3.522003   -1.137160
 C         -2.608061    4.317140   -2.276655
 C         -3.073042    3.793538   -3.490920
 C         -3.420286    2.438299   -3.521008
 C         -3.314645    1.636360   -2.383723
 H         -2.154349    3.967936   -0.211222
 H         -2.324885    5.365730   -2.218941
 H         -3.780734    1.997790   -4.447706
 H         -3.588089    0.587976   -2.452455
 C         -3.011573    1.976945    1.396776
 C         -4.147024    2.797900    1.473241
 C         -4.538342    3.369255    2.682482
 C         -3.814612    3.145879    3.861562
 C         -2.688824    2.318040    3.783193
 C         -2.293828    1.740861    2.575671
 H         -4.729210    3.004111    0.580422
 H         -5.424480    3.999166    2.707525
 H         -2.108250    2.116676    4.680577
 H         -1.418113    1.100212    2.562221
 C          4.223559   -3.793817   -5.163078
 H          3.813426   -4.809135   -5.246491
 H          3.861265   -3.224278   -6.025017
 C          3.219150   -4.668492    4.713251
 H          3.157755   -4.081597    5.635414
 H          2.443602   -5.441097    4.747749
 C         -3.219177    4.668588   -4.713181
 H         -2.443764    5.441334   -4.747549
 H         -3.157567    4.081748   -5.635366
 C         -4.223600    3.793926    5.162981
 H         -3.861526    3.224280    6.024940
 H         -3.813262    4.809155    5.246477
 H          5.312609   -3.877993   -5.242863
 H          4.189343   -5.182815    4.717823
 H         -4.189462    5.182737   -4.717842
 H         -5.312642    3.878330    5.242644
 S        -13.560694    1.898846   -0.053415
 S         13.560711   -1.898854    0.053467
 H        -11.517155    3.291402    0.013490
 H         11.517177   -3.291418   -0.013442
       120
S1: Total Energy = -5448.77178783
 C          7.140215    1.247534    0.047674
 C          6.209271    2.310019    0.058877
 C          4.892765    1.871287    0.034203
 C          4.757452    0.459663    0.002236
 C          3.422721    0.046018   -0.005757
 C          2.539704    1.138683    0.011865
 C          1.188651    0.708693    0.005802
 C          1.200852   -0.727753   -0.043205
 C          0.023020   -1.437068   -0.045208
 S          6.315975   -0.330916    0.000036
 S          3.333881    2.696739    0.040742
 C          2.648247   -1.270072   -0.064860
 H          6.524668    3.346639    0.084851
 H          0.014823   -2.521958   -0.074980
 C         -7.140218   -1.247526   -0.047686
 C         -6.209274   -2.310011   -0.058934
 C         -4.892767   -1.871278   -0.034331
 C         -4.757453   -0.459654   -0.002378
 C         -3.422722   -0.046009    0.005560
 C         -2.539706   -1.138674   -0.012082
 C         -1.188653   -0.708683   -0.006044
 C         -1.200853    0.727764    0.042962
 C         -0.023022    1.437079    0.044960
 S         -6.315976    0.330925   -0.000115
 S         -3.333883   -2.696730   -0.040932
 C         -2.648249    1.270083    0.064631
 H         -6.524673   -3.346632   -0.084880
 H         -0.014824    2.521969    0.074735
 C          8.530421    1.528445    0.073720
 C          9.675446    0.746553    0.071380
 C          9.713982   -0.744268    0.028442
 O          8.751533   -1.504847   -0.006389
 C         11.140166   -1.115804    0.035906
 C         11.863258   -2.270340    0.010704
 C         13.280354   -0.187778    0.091748
 C         11.934063    0.076559    0.082169
 C         11.048666    1.248286    0.106921
 C         11.510668    2.562500    0.157563
 C         12.906095    2.849259    0.185039
 N         14.046617    3.093761    0.207630
 C         10.686052    3.722339    0.188567
 N         10.044915    4.697299    0.215639
 H          8.698351    2.599464    0.102632
 H         14.121572    0.488549    0.122963
 C         -8.530425   -1.528437   -0.073632
 C         -9.675450   -0.746545   -0.071206
 C         -9.713980    0.744276   -0.028274
 O         -8.751528    1.504854    0.006459
 C        -11.140165    1.115813   -0.035594
 C        -11.863255    2.270349   -0.010326
 C        -13.280359    0.187787   -0.091208
 C        -11.934067   -0.076551   -0.081768
 C        -11.048674   -1.248278   -0.106603
 C        -11.510682   -2.562492   -0.157182
 C        -12.906112   -2.849251   -0.184491
 N        -14.046637   -3.093751   -0.206948
 C        -10.686071   -3.722332   -0.188264
 N        -10.044939   -4.697294   -0.215406
 H         -8.698358   -2.599457   -0.102514
 H        -14.121581   -0.488540   -0.122330
 C          3.012520   -1.976862   -1.390069
 C          4.144000   -2.803725   -1.461824
 C          4.537493   -3.376249   -2.669716
 C          3.820014   -3.148328   -3.851913
 C          2.698452   -2.314164   -3.778213
 C          2.301611   -1.735348   -2.572284
 H          4.721304   -3.013250   -0.566653
 H          5.420418   -4.010720   -2.691394
 H          2.123209   -2.108907   -4.678099
 H          1.430108   -1.088801   -2.562603
 C          2.853613   -2.160316    1.177764
 C          2.499547   -3.517655    1.147804
 C          2.598954   -4.308688    2.290449
 C          3.058101   -3.780302    3.504975
 C          3.403494   -2.424450    3.532154
 C          3.301485   -1.626476    2.391888
 H          2.153903   -3.967191    0.221830
 H          2.317412   -5.357822    2.235164
 H          3.759365   -1.980463    4.458922
 H          3.572826   -0.577357    2.458083
 C         -2.853633    2.160305   -1.178005
 C         -2.499464    3.517620   -1.148114
 C         -2.598885    4.308622   -2.290778
 C         -3.058149    3.780231   -3.505258
 C         -3.403643    2.424403   -3.532370
 C         -3.301619    1.626459   -2.392085
 H         -2.153724    3.967160   -0.222178
 H         -2.317262    5.357737   -2.235546
 H         -3.759605    1.980412   -4.459102
 H         -3.573041    0.577357   -2.458229
 C         -3.012500    1.976885    1.389841
 C         -4.144047    2.803651    1.461647
 C         -4.537513    3.376172    2.669549
 C         -3.819940    3.148344    3.851706
 C         -2.698312    2.314272    3.777957
 C         -2.301498    1.735459    2.572018
 H         -4.721428    3.013100    0.566508
 H         -5.420493    4.010567    2.691267
 H         -2.122996    2.109087    4.677812
 H         -1.429941    1.088985    2.562299
 C          4.231287   -3.797807   -5.151751
 H          3.815958   -4.810841   -5.237265
 H          3.875863   -3.225988   -6.015009
 C          3.200057   -4.651037    4.730703
 H          3.134088   -4.061183    5.650637
 H          2.425423   -5.424569    4.764388
 C         -3.200119    4.650936   -4.731005
 H         -2.425426    5.424404   -4.764769
 H         -3.134261    4.061045   -5.650923
 C         -4.231187    3.797820    5.151553
 H         -3.875654    3.226056    6.014804
 H         -3.815945    4.810894    5.237014
 H          5.320186   -3.887926   -5.226624
 H          4.170922   -5.163987    4.740908
 H         -4.170945    5.163964   -4.741160
 H         -5.320090    3.887842    5.226495
 S        -13.563729    1.905899   -0.043132
 S         13.563729   -1.905889    0.043685
 H        -11.516597    3.294200    0.024517
 H         11.516605   -3.294191   -0.024182
