       126
S0: Total Energy = -5005.79920919
 C          7.126693    1.406600    0.054415
 C          6.179576    2.445684    0.067618
 C          4.867677    1.980964    0.044103
 C          4.763598    0.572907    0.010558
 C          3.424779    0.128355    0.004114
 C          2.537475    1.191794    0.024447
 C          1.170049    0.729034    0.011804
 C          1.217311   -0.689778   -0.042014
 C          0.045324   -1.428734   -0.050437
 S          6.327303   -0.186596    0.007124
 S          3.291295    2.765224    0.054250
 C          2.675636   -1.203999   -0.060644
 H          6.473022    3.489126    0.093767
 H          0.062440   -2.513746   -0.084030
 C         -7.126693   -1.406600   -0.054415
 C         -6.179576   -2.445684   -0.067619
 C         -4.867678   -1.980963   -0.044105
 C         -4.763598   -0.572907   -0.010560
 C         -3.424779   -0.128355   -0.004118
 C         -2.537475   -1.191794   -0.024451
 C         -1.170049   -0.729034   -0.011808
 C         -1.217311    0.689778    0.042009
 C         -0.045325    1.428734    0.050432
 S         -6.327303    0.186596   -0.007125
 S         -3.291296   -2.765224   -0.054254
 C         -2.675637    1.203999    0.060639
 H         -6.473023   -3.489126   -0.093768
 H         -0.062441    2.513746    0.084025
 C          8.509875    1.717417    0.077070
 C          9.667724    0.964174    0.073051
 C          9.738223   -0.512211    0.035437
 O          8.806700   -1.309618    0.005475
 C         11.175585   -0.871656    0.040358
 C         11.725957   -2.143557    0.012509
 C         13.114969   -2.218298    0.024613
 C         13.924222   -1.081862    0.062723
 C         13.347941    0.189049    0.090591
 C         11.950716    0.301935    0.079364
 C         11.041698    1.475250    0.102550
 C         11.466260    2.794435    0.146445
 C         12.841321    3.179836    0.170369
 N         13.946450    3.549316    0.191177
 C         10.596893    3.927062    0.174883
 N          9.932954    4.885002    0.200184
 H          8.649316    2.792310    0.104526
 H         11.108063   -3.034380   -0.016983
 F         13.704081   -3.426164   -0.001160
 H         13.997070    1.053116    0.119937
 C         -8.509876   -1.717417   -0.077068
 C         -9.667725   -0.964174   -0.073048
 C         -9.738223    0.512212   -0.035434
 O         -8.806700    1.309618   -0.005473
 C        -11.175585    0.871657   -0.040353
 C        -11.725956    2.143558   -0.012503
 C        -13.114969    2.218299   -0.024604
 C        -13.924222    1.081863   -0.062713
 C        -13.347942   -0.189048   -0.090582
 C        -11.950716   -0.301935   -0.079357
 C        -11.041698   -1.475249   -0.102545
 C        -11.466260   -2.794434   -0.146439
 C        -12.841322   -3.179836   -0.170362
 N        -13.946451   -3.549315   -0.191168
 C        -10.596894   -3.927061   -0.174879
 N         -9.932955   -4.885001   -0.200182
 H         -8.649316   -2.792310   -0.104524
 H        -11.108062    3.034380    0.016989
 F        -13.704081    3.426165    0.001170
 H        -13.997070   -1.053115   -0.119927
 C          3.055175   -1.909556   -1.382779
 C          4.212620   -2.699847   -1.453364
 C          4.619794   -3.271725   -2.657505
 C          3.889971   -3.079743   -3.838052
 C          2.741235   -2.283319   -3.766058
 C          2.329998   -1.706862   -2.563423
 H          4.800082   -2.882410   -0.558677
 H          5.523007   -3.877311   -2.677000
 H          2.154304   -2.107287   -4.664760
 H          1.435971   -1.092067   -2.554441
 C          2.898072   -2.093677    1.180344
 C          2.560457   -3.455302    1.150146
 C          2.677232   -4.248835    2.289692
 C          3.138234   -3.718758    3.502559
 C          3.468079   -2.359110    3.530637
 C          3.349769   -1.559343    2.392879
 H          2.213395   -3.906478    0.225439
 H          2.407358   -5.301069    2.233113
 H          3.825288   -1.913405    4.456235
 H          3.609386   -0.507388    2.459546
 C         -2.898072    2.093676   -1.180348
 C         -2.560458    3.455302   -1.150151
 C         -2.677233    4.248834   -2.289698
 C         -3.138236    3.718757   -3.502564
 C         -3.468081    2.359109   -3.530642
 C         -3.349770    1.559342   -2.392883
 H         -2.213395    3.906478   -0.225444
 H         -2.407359    5.301068   -2.233119
 H         -3.825291    1.913403   -4.456239
 H         -3.609387    0.507387   -2.459550
 C         -3.055174    1.909556    1.382775
 C         -4.212618    2.699848    1.453361
 C         -4.619791    3.271726    2.657502
 C         -3.889969    3.079742    3.838048
 C         -2.741234    2.283317    3.766054
 C         -2.329998    1.706860    2.563419
 H         -4.800080    2.882413    0.558674
 H         -5.523003    3.877313    2.676998
 H         -2.154303    2.107283    4.664756
 H         -1.435972    1.092063    2.554436
 C          4.315726   -3.728753   -5.133858
 H          3.930131   -4.754252   -5.209841
 H          3.940925   -3.175020   -6.000818
 C          3.298857   -4.591055    4.725178
 H          3.230226   -4.004511    5.647125
 H          2.534413   -5.374631    4.761339
 C         -3.298860    4.591053   -4.725183
 H         -2.534443    5.374655   -4.761325
 H         -3.230190    4.004515   -5.647131
 C         -4.315720    3.728753    5.133856
 H         -3.940989    3.174972    6.000815
 H         -3.930051    4.754222    5.209877
 H          5.406609   -3.787615   -5.212157
 H          4.276221   -5.091748    4.729169
 H         -4.276241    5.091713   -4.729195
 H         -5.406601    3.787693    5.212119
 H        -15.002068    1.203070   -0.070286
 H         15.002068   -1.203069    0.070298
       126
T1: Total Energy = -5005.75328081
 C          7.105834   -1.411427   -0.048538
 C          6.141594   -2.455393   -0.060168
 C          4.843375   -1.987856   -0.035277
 C          4.738328   -0.566907   -0.001685
 C          3.422650   -0.122854    0.007411
 C          2.505462   -1.198366   -0.011176
 C          1.173519   -0.737255   -0.004478
 C          1.217919    0.702333    0.044057
 C          0.060066    1.437345    0.044008
 S          6.318674    0.186825    0.000296
 S          3.263932   -2.777220   -0.042379
 C          2.678371    1.211359    0.068995
 H          6.434048   -3.498644   -0.086671
 H          0.076492    2.522304    0.072346
 C         -7.105834    1.411428    0.048516
 C         -6.141593    2.455395    0.060150
 C         -4.843374    1.987856    0.035293
 C         -4.738327    0.566907    0.001721
 C         -3.422650    0.122853   -0.007355
 C         -2.505461    1.198365    0.011232
 C         -1.173518    0.737253    0.004548
 C         -1.217918   -0.702335   -0.043984
 C         -0.060065   -1.437347   -0.043934
 S         -6.318674   -0.186825   -0.000272
 S         -3.263931    2.777220    0.042413
 C         -2.678370   -1.211360   -0.068922
 H         -6.434048    3.498645    0.086629
 H         -0.076491   -2.522306   -0.072274
 C          8.480889   -1.726787   -0.074208
 C          9.647752   -0.968022   -0.072789
 C          9.718805    0.509349   -0.033954
 O          8.785461    1.305489   -0.000371
 C         11.155295    0.871414   -0.042537
 C         11.706262    2.142214   -0.015137
 C         13.096464    2.216191   -0.030947
 C         13.902733    1.079685   -0.072123
 C         13.323881   -0.192347   -0.099510
 C         11.928030   -0.303674   -0.084636
 C         11.013222   -1.475018   -0.106207
 C         11.437868   -2.800833   -0.152624
 C         12.811300   -3.185500   -0.180187
 N         13.917056   -3.555290   -0.203996
 C         10.571299   -3.933554   -0.180297
 N          9.912237   -4.895786   -0.205335
 H          8.621498   -2.800844   -0.101716
 H         11.089484    3.033781    0.016778
 F         13.685889    3.425317   -0.005702
 H         13.972062   -1.057076   -0.131309
 C         -8.480889    1.726790    0.074145
 C         -9.647752    0.968025    0.072717
 C         -9.718805   -0.509347    0.033925
 O         -8.785461   -1.305488    0.000389
 C        -11.155296   -0.871410    0.042485
 C        -11.706263   -2.142211    0.015110
 C        -13.096466   -2.216187    0.030887
 C        -13.902735   -1.079679    0.072008
 C        -13.323883    0.192354    0.099370
 C        -11.928031    0.303679    0.084527
 C        -11.013223    1.475023    0.106084
 C        -11.437869    2.800840    0.152449
 C        -12.811302    3.185508    0.179969
 N        -13.917058    3.555300    0.203741
 C        -10.571300    3.933561    0.180107
 N         -9.912239    4.895794    0.205132
 H         -8.621498    2.800847    0.101622
 H        -11.089484   -3.033779   -0.016762
 F        -13.685890   -3.425313    0.005664
 H        -13.972064    1.057084    0.131124
 C          3.056632    1.906351    1.397041
 C          4.210887    2.700602    1.474515
 C          4.615704    3.260864    2.684579
 C          3.887373    3.052319    3.863588
 C          2.742685    2.250789    3.784238
 C          2.334049    1.684910    2.575871
 H          4.797358    2.894885    0.581815
 H          5.515965    3.870394    2.710332
 H          2.157928    2.061321    4.681487
 H          1.443743    1.064722    2.561721
 C          2.909539    2.101037   -1.169653
 C          2.587359    3.466195   -1.135500
 C          2.709648    4.259562   -2.274437
 C          3.160726    3.725706   -3.489515
 C          3.474191    2.362215   -3.521096
 C          3.349490    1.562141   -2.384399
 H          2.248588    3.920065   -0.209111
 H          2.452508    5.314757   -2.215566
 H          3.822738    1.913689   -4.448503
 H          3.596582    0.507296   -2.454374
 C         -2.909544   -2.101027    1.169734
 C         -2.587374   -3.466187    1.135592
 C         -2.709670   -4.259544    2.274535
 C         -3.160742   -3.725675    3.489609
 C         -3.474197   -2.362181    3.521180
 C         -3.349491   -1.562117    2.384475
 H         -2.248608   -3.920068    0.209206
 H         -2.452538   -5.314742    2.215672
 H         -3.822740   -1.913645    4.448583
 H         -3.596574   -0.507270    2.454443
 C         -3.056626   -1.906367   -1.396962
 C         -4.210872   -2.700630   -1.474429
 C         -4.615684   -3.260907   -2.684488
 C         -3.887356   -3.052363   -3.863500
 C         -2.742677   -2.250820   -3.784157
 C         -2.334046   -1.684927   -2.575795
 H         -4.797340   -2.894912   -0.581727
 H         -5.515938   -3.870447   -2.710236
 H         -2.157922   -2.061353   -4.681408
 H         -1.443747   -1.064730   -2.561651
 C          4.311489    3.688732    5.165901
 H          3.922299    4.712014    5.252152
 H          3.938728    3.124774    6.027034
 C          3.327610    4.597892   -4.711161
 H          3.249489    4.013689   -5.633759
 H          2.572482    5.390532   -4.743502
 C         -3.327634   -4.597849    4.711262
 H         -2.572534   -5.390517    4.743592
 H         -3.249472   -4.013644    5.633857
 C         -4.311464   -3.688793   -5.165807
 H         -3.938774   -3.124795   -6.026945
 H         -3.922197   -4.712043   -5.252084
 H          5.402135    3.750529    5.244149
 H          4.310887    5.086719   -4.716752
 H         -4.310929   -5.086639    4.716876
 H         -5.402108   -3.750672   -5.244022
 H        -14.980919   -1.198558    0.082405
 H         14.980917    1.198565   -0.082544
       126
S1: Total Energy = -5005.73590765
 C          7.109416   -1.410633   -0.047484
 C          6.153594   -2.451016   -0.058616
 C          4.847925   -1.982004   -0.034626
 C          4.744966   -0.567330   -0.002876
 C          3.420572   -0.123148    0.005054
 C          2.512512   -1.195843   -0.012475
 C          1.172248   -0.735361   -0.005959
 C          1.216952    0.700880    0.042760
 C          0.055735    1.436592    0.044555
 S          6.321436    0.186798   -0.000594
 S          3.270808   -2.771652   -0.041645
 C          2.676344    1.210194    0.064758
 H          6.444757   -3.494665   -0.084052
 H          0.071674    2.521441    0.073684
 C         -7.109416    1.410633    0.047472
 C         -6.153594    2.451016    0.058607
 C         -4.847924    1.982003    0.034638
 C         -4.744965    0.567329    0.002899
 C         -3.420572    0.123146   -0.005018
 C         -2.512512    1.195841    0.012512
 C         -1.172248    0.735359    0.006005
 C         -1.216951   -0.700882   -0.042712
 C         -0.055734   -1.436594   -0.044507
 S         -6.321436   -0.186799    0.000608
 S         -3.270807    2.771650    0.041668
 C         -2.676344   -1.210196   -0.064712
 H         -6.444756    3.494665    0.084029
 H         -0.071673   -2.521443   -0.073638
 C          8.492289   -1.725090   -0.073097
 C          9.653940   -0.968178   -0.071823
 C          9.722686    0.510833   -0.031215
 O          8.787348    1.304470    0.003150
 C         11.157815    0.874380   -0.039117
 C         11.706840    2.145736   -0.009649
 C         13.097274    2.222213   -0.025037
 C         13.905110    1.086616   -0.067695
 C         13.328954   -0.186463   -0.097220
 C         11.932226   -0.301341   -0.083002
 C         11.023502   -1.472760   -0.106600
 C         11.449063   -2.800236   -0.156318
 C         12.821893   -3.183926   -0.185984
 N         13.928733   -3.551992   -0.211818
 C         10.582918   -3.932007   -0.186034
 N          9.921308   -4.893183   -0.212653
 H          8.632182   -2.799417   -0.100794
 H         11.088535    3.036233    0.023414
 F         13.684882    3.432450    0.002165
 H         13.978343   -1.050273   -0.129910
 C         -8.492289    1.725091    0.073060
 C         -9.653941    0.968180    0.071780
 C         -9.722687   -0.510833    0.031197
 O         -8.787349   -1.304471   -0.003141
 C        -11.157815   -0.874379    0.039085
 C        -11.706841   -2.145735    0.009633
 C        -13.097275   -2.222212    0.025002
 C        -13.905111   -1.086614    0.067626
 C        -13.328955    0.186466    0.097135
 C        -11.932227    0.301344    0.082937
 C        -11.023503    1.472762    0.106525
 C        -11.449064    2.800240    0.156208
 C        -12.821895    3.183931    0.185849
 N        -13.928735    3.551997    0.211660
 C        -10.582920    3.932011    0.185909
 N         -9.921309    4.893188    0.212513
 H         -8.632182    2.799418    0.100738
 H        -11.088536   -3.036233   -0.023405
 F        -13.684883   -3.432449   -0.002187
 H        -13.978344    1.050277    0.129800
 C          3.056750    1.906854    1.390874
 C          4.206743    2.707699    1.463803
 C          4.613123    3.269500    2.672543
 C          3.890746    3.056062    3.854499
 C          2.750592    2.247480    3.779638
 C          2.340664    1.679638    2.572840
 H          4.788547    2.905592    0.568890
 H          5.509914    3.884183    2.695076
 H          2.170925    2.053837    4.679246
 H          1.454748    1.053002    2.562366
 C          2.902480    2.096299   -1.177236
 C          2.582042    3.461955   -1.146185
 C          2.700562    4.251046   -2.288430
 C          3.145985    3.712277   -3.503541
 C          3.457614    2.348218   -3.531822
 C          3.336417    1.552282   -2.391981
 H          2.247875    3.919560   -0.219966
 H          2.445035    5.306752   -2.232288
 H          3.801732    1.896109   -4.459101
 H          3.581446    0.496746   -2.459155
 C         -2.902484   -2.096293    1.177286
 C         -2.582042   -3.461949    1.146246
 C         -2.700567   -4.251033    2.288496
 C         -3.145997   -3.712258    3.503600
 C         -3.457629   -2.348199    3.531872
 C         -3.336428   -1.552270    2.392026
 H         -2.247869   -3.919559    0.220032
 H         -2.445036   -5.306739    2.232362
 H         -3.801753   -1.896084    4.459146
 H         -3.581460   -0.496734    2.459192
 C         -3.056745   -1.906863   -1.390825
 C         -4.206735   -2.707713   -1.463754
 C         -4.613111   -3.269520   -2.672492
 C         -3.890733   -3.056084   -3.854448
 C         -2.750582   -2.247497   -3.779588
 C         -2.340658   -1.679649   -2.572792
 H         -4.788540   -2.905604   -0.568841
 H         -5.509900   -3.884206   -2.695024
 H         -2.170915   -2.053855   -4.679196
 H         -1.454745   -1.053009   -2.562318
 C          4.316465    3.694308    5.155241
 H          3.921355    4.715160    5.243380
 H          3.950669    3.127783    6.017646
 C          3.308852    4.579975   -4.728810
 H          3.226466    3.992663   -5.649036
 H          2.554563    5.373401   -4.760791
 C         -3.308869   -4.579947    4.728875
 H         -2.554602   -5.373394    4.760846
 H         -3.226453   -3.992635    5.649097
 C         -4.316445   -3.694337   -5.155188
 H         -3.950714   -3.127771   -6.017594
 H         -3.921264   -4.715160   -5.243357
 H          5.407009    3.762761    5.228849
 H          4.292693    5.067546   -4.739844
 H         -4.292724   -5.067490    4.739926
 H         -5.406986   -3.762867   -5.228765
 H        -14.983162   -1.207473    0.077488
 H         14.983161    1.207477   -0.077570
