       126
S0: Total Energy = -5867.65763301
 C          7.099720    1.716326    0.048104
 C          6.153154    2.759766    0.062848
 C          4.842503    2.301440    0.039258
 C          4.729482    0.896320    0.003736
 C          3.405605    0.397247   -0.001743
 C          2.436198    1.381188    0.022116
 C          1.111646    0.815229    0.012802
 C          1.265917   -0.596309   -0.041977
 C          0.153534   -1.421640   -0.052664
 S          6.291765    0.132547   -0.001019
 C          2.758747   -0.992750   -0.061156
 H          6.451322    3.801775    0.090731
 H          0.250798   -2.502454   -0.088827
 C         -7.099719   -1.716329   -0.048101
 C         -6.153153   -2.759769   -0.062844
 C         -4.842502   -2.301443   -0.039250
 C         -4.729481   -0.896322   -0.003726
 C         -3.405605   -0.397249    0.001755
 C         -2.436197   -1.381190   -0.022103
 C         -1.111646   -0.815230   -0.012787
 C         -1.265917    0.596308    0.041992
 C         -0.153533    1.421638    0.052679
 S         -6.291765   -0.132551    0.001026
 C         -2.758746    0.992748    0.061171
 H         -6.451320   -3.801778   -0.090730
 H         -0.250797    2.502452    0.088842
 C          8.481923    2.021867    0.070065
 C          9.638340    1.261789    0.063510
 C          9.698991   -0.214699    0.023172
 O          8.763482   -1.007594   -0.006687
 C         11.134468   -0.580580    0.025425
 C         11.685452   -1.850042   -0.005386
 C         13.077283   -1.967698    0.003798
 C         13.877494   -0.809822    0.043885
 C         13.306488    0.468324    0.075056
 C         11.915419    0.586142    0.065560
 C         11.011352    1.767727    0.091908
 C         11.447694    3.082586    0.136976
 C         12.826426    3.454608    0.158502
 N         13.936207    3.809555    0.177301
 C         10.585601    4.220806    0.168631
 N          9.926009    5.181446    0.196369
 H          8.627189    3.095977    0.099260
 H         11.051885   -2.729685   -0.035690
 H         13.967411    1.322808    0.105261
 C         -8.481922   -2.021871   -0.070068
 C         -9.638339   -1.261793   -0.063516
 C         -9.698990    0.214695   -0.023176
 O         -8.763481    1.007589    0.006690
 C        -11.134467    0.580576   -0.025436
 C        -11.685451    1.850038    0.005373
 C        -13.077281    1.967695   -0.003819
 C        -13.877492    0.809819   -0.043913
 C        -13.306486   -0.468328   -0.075082
 C        -11.915418   -0.586145   -0.065578
 C        -11.011351   -1.767731   -0.091922
 C        -11.447694   -3.082589   -0.136995
 C        -12.826426   -3.454610   -0.158530
 N        -13.936206   -3.809558   -0.177338
 C        -10.585601   -4.220810   -0.168647
 N         -9.926010   -5.181451   -0.196381
 H         -8.627187   -3.095981   -0.099267
 H        -11.051883    2.729681    0.035683
 H        -13.967410   -1.322811   -0.105294
 C          3.183436   -1.673172   -1.383037
 C          4.361065   -2.433160   -1.449742
 C          4.797225   -2.978183   -2.657207
 C          4.078086   -2.787621   -3.844265
 C          2.908852   -2.019786   -3.776400
 C          2.468609   -1.471345   -2.571319
 H          4.942218   -2.614358   -0.551147
 H          5.715176   -3.561223   -2.673079
 H          2.329586   -1.844992   -4.680259
 H          1.559645   -0.878585   -2.565234
 C          3.048776   -1.853529    1.186543
 C          2.803939   -3.235645    1.170939
 C          2.977953   -4.008620    2.317560
 C          3.405300   -3.436622    3.524086
 C          3.641463   -2.057185    3.538238
 C          3.465846   -1.278080    2.393117
 H          2.485175   -3.718525    0.252195
 H          2.780007   -5.077212    2.271785
 H          3.969293   -1.579056    4.458464
 H          3.651678   -0.210209    2.450223
 C         -3.048775    1.853529   -1.186528
 C         -2.803968    3.235650   -1.170909
 C         -2.977983    4.008631   -2.317525
 C         -3.405303    3.436633   -3.524062
 C         -3.641438    2.057192   -3.538227
 C         -3.465818    1.278082   -2.393110
 H         -2.485227    3.718530   -0.252157
 H         -2.780060    5.077227   -2.271739
 H         -3.969247    1.579063   -4.458462
 H         -3.651629    0.210207   -2.450226
 C         -3.183437    1.673170    1.383050
 C         -4.361041    2.433197    1.449740
 C         -4.797205    2.978225    2.657202
 C         -4.078093    2.787631    3.844272
 C         -2.908882    2.019759    3.776420
 C         -2.468636    1.471313    2.571343
 H         -4.942173    2.614422    0.551137
 H         -5.715137    3.561295    2.673063
 H         -2.329637    1.844940    4.680289
 H         -1.559690    0.878525    2.565269
 C          4.535521   -3.408047   -5.143504
 H          4.169569   -4.438932   -5.241517
 H          4.163901   -2.847312   -6.007428
 C          3.628191   -4.284226    4.754529
 H          3.521274   -3.695002    5.671188
 H          2.919616   -5.118292    4.800132
 C         -3.628192    4.284245   -4.754500
 H         -2.919539    5.118241   -4.800159
 H         -3.521392    3.695000   -5.671159
 C         -4.535530    3.408062    5.143507
 H         -4.163960    2.847296    6.007433
 H         -4.169527    4.438927    5.241544
 H          5.628410   -3.446130   -5.205620
 H          4.637836   -4.716251    4.760273
 H         -4.637795    4.716370   -4.760182
 H         -5.628419    3.446199    5.205596
Se         -3.117069   -3.172549   -0.054477
Se          3.117071    3.172547    0.054487
Cl        -15.616430    0.926728   -0.056217
Cl        -13.785660    3.557905    0.034988
Cl         13.785661   -3.557908   -0.035011
Cl         15.616432   -0.926731    0.056178
       126
T1: Total Energy = -5867.61434466
 C          7.079673    1.716312    0.042620
 C          6.117590    2.764110    0.058015
 C          4.819575    2.303327    0.031988
 C          4.704801    0.885519   -0.006158
 C          3.404553    0.389103   -0.014118
 C          2.404823    1.384419    0.009734
 C          1.115114    0.823012    0.006442
 C          1.267053   -0.609443   -0.045716
 C          0.167826   -1.428943   -0.049216
 S          6.284991    0.127769   -0.011144
 C          2.761235   -1.001656   -0.071829
 H          6.414971    3.805831    0.088584
 H          0.263476   -2.509770   -0.082368
 C         -7.079673   -1.716315   -0.042643
 C         -6.117590   -2.764112   -0.058047
 C         -4.819574   -2.303329   -0.032015
 C         -4.704800   -0.885522    0.006141
 C         -3.404553   -0.389106    0.014102
 C         -2.404822   -1.384422   -0.009754
 C         -1.115113   -0.823014   -0.006458
 C         -1.267052    0.609441    0.045703
 C         -0.167825    1.428940    0.049201
 S         -6.284991   -0.127772    0.011132
 C         -2.761234    1.001654    0.071817
 H         -6.414970   -3.805832   -0.088624
 H         -0.263476    2.509767    0.082352
 C          8.455317    2.027922    0.068197
 C          9.619885    1.264142    0.062735
 C          9.682239   -0.214237    0.019022
 O          8.745491   -1.005958   -0.015939
 C         11.116890   -0.581230    0.024914
 C         11.669331   -1.848905   -0.006902
 C         13.062703   -1.964532    0.006379
 C         13.858373   -0.805769    0.051473
 C         13.284516    0.472912    0.083624
 C         11.894201    0.588386    0.070005
 C         10.985080    1.766501    0.095792
 C         11.420102    3.088957    0.144486
 C         12.796703    3.461523    0.170246
 N         13.906975    3.817336    0.192583
 C         10.559537    4.226043    0.175784
 N          9.903341    5.189997    0.203630
 H          8.600363    3.101324    0.099534
 H         11.037764   -2.729869   -0.041091
 H         13.943992    1.328370    0.117791
 C         -8.455317   -2.027924   -0.068223
 C         -9.619885   -1.264144   -0.062746
 C         -9.682239    0.214234   -0.019006
 O         -8.745490    1.005954    0.015963
 C        -11.116890    0.581226   -0.024881
 C        -11.669331    1.848900    0.006964
 C        -13.062704    1.964527   -0.006306
 C        -13.858373    0.805764   -0.051421
 C        -13.284516   -0.472916   -0.083601
 C        -11.894201   -0.588390   -0.069990
 C        -10.985080   -1.766503   -0.095806
 C        -11.420102   -3.088959   -0.144524
 C        -12.796703   -3.461525   -0.170272
 N        -13.906974   -3.817338   -0.192599
 C        -10.559536   -4.226044   -0.175856
 N         -9.903340   -5.189996   -0.203732
 H         -8.600363   -3.101326   -0.099573
 H        -11.037765    2.729864    0.041168
 H        -13.943992   -1.328373   -0.117782
 C          3.183022   -1.670213   -1.400474
 C          4.358554   -2.432556   -1.476381
 C          4.790756   -2.965003   -2.690478
 C          4.070282   -2.758621   -3.874515
 C          2.903915   -1.987445   -3.796956
 C          2.467844   -1.450425   -2.585346
 H          4.940898   -2.624811   -0.581013
 H          5.706694   -3.550708   -2.714474
 H          2.324640   -1.799753   -4.698081
 H          1.561687   -0.853370   -2.572478
 C          3.059293   -1.863852    1.172339
 C          2.829846   -3.248393    1.150641
 C          3.008693   -4.022535    2.295600
 C          3.425363   -3.449253    3.505374
 C          3.645048   -2.067094    3.525181
 C          3.463696   -1.286433    2.382198
 H          2.519853   -3.732076    0.229391
 H          2.823620   -5.093158    2.245834
 H          3.963647   -1.588103    4.448072
 H          3.637170   -0.216661    2.444129
 C         -3.059293    1.863856   -1.172346
 C         -2.829895    3.248405   -1.150624
 C         -3.008744    4.022557   -2.295575
 C         -3.425367    3.449278   -3.505366
 C         -3.645005    2.067112   -3.525198
 C         -3.463650    1.286441   -2.382223
 H         -2.519941    3.732085   -0.229359
 H         -2.823710    5.093186   -2.245790
 H         -3.963568    1.588124   -4.448103
 H         -3.637087    0.216664   -2.444172
 C         -3.183019    1.670207    1.400464
 C         -4.358531    2.432582    1.476362
 C         -4.790735    2.965029    2.690459
 C         -4.070282    2.758617    3.874503
 C         -2.903934    1.987411    3.796952
 C         -2.467862    1.450390    2.585343
 H         -4.940857    2.624863    0.580988
 H         -5.706658    3.550760    2.714448
 H         -2.324676    1.799697    4.698083
 H         -1.561720    0.853311    2.572481
 C          4.524454   -3.365470   -5.181009
 H          4.154915   -4.393977   -5.289544
 H          4.153529   -2.794036   -6.038095
 C          3.653911   -4.298197    4.733638
 H          3.536700   -3.713517    5.651867
 H          2.955649   -5.141123    4.773556
 C         -3.653916    4.298234   -4.733622
 H         -2.955596    5.141111   -4.773577
 H         -3.536789    3.713542   -5.651856
 C         -4.524454    3.365467    5.180996
 H         -4.153570    2.794006    6.038082
 H         -4.154873    4.393958    5.289554
 H          5.617079   -3.406400   -5.244439
 H          4.668847   -4.717459    4.740967
 H         -4.668822    4.717569   -4.740904
 H         -5.617078    3.406442    5.244406
Se         -3.092065   -3.180017   -0.045509
Se          3.092066    3.180015    0.045478
Cl        -15.598245    0.917452   -0.069077
Cl        -13.773627    3.554815    0.033950
Cl         13.773626   -3.554822   -0.033840
Cl         15.598245   -0.917456    0.069139
       126
S1: Total Energy = -5867.59717704
 C          7.083658    1.716749    0.041364
 C          6.129990    2.761024    0.055756
 C          4.824565    2.298606    0.030389
 C          4.712012    0.887560   -0.005769
 C          3.402140    0.390355   -0.012651
 C          2.412567    1.382880    0.010019
 C          1.113686    0.821083    0.007270
 C          1.266020   -0.607552   -0.044511
 C          0.163356   -1.428450   -0.049043
 S          6.287672    0.129161   -0.010294
 C          2.759252   -0.999690   -0.068116
 H          6.426024    3.803176    0.085057
 H          0.258774   -2.509213   -0.082493
 C         -7.083646   -1.716771   -0.041373
 C         -6.129975   -2.761044   -0.055737
 C         -4.824553   -2.298623   -0.030297
 C         -4.712003   -0.887577    0.005892
 C         -3.402132   -0.390370    0.012836
 C         -2.412557   -1.382894   -0.009815
 C         -1.113676   -0.821097   -0.007031
 C         -1.266011    0.607537    0.044755
 C         -0.163346    1.428435    0.049289
 S         -6.287666   -0.129183    0.010355
 C         -2.759244    0.999674    0.068338
 H         -6.426005   -3.803196   -0.085078
 H         -0.258764    2.509198    0.082733
 C          8.467198    2.027058    0.066964
 C          9.625980    1.264977    0.062044
 C          9.686197   -0.214638    0.017279
 O          8.747512   -1.004093   -0.018287
 C         11.119510   -0.582618    0.022966
 C         11.670006   -1.850818   -0.010085
 C         13.063630   -1.969063    0.003081
 C         13.860977   -0.810798    0.049253
 C         13.290200    0.468588    0.082666
 C         11.898554    0.587923    0.069331
 C         10.996775    1.765395    0.096320
 C         11.431697    3.089288    0.147479
 C         12.807675    3.461603    0.175143
 N         13.918741    3.816349    0.199295
 C         10.571062    4.225237    0.179992
 N          9.912433    5.188182    0.208715
 H          8.611682    3.100724    0.098128
 H         11.036938   -2.730687   -0.045044
 H         13.950923    1.323066    0.117395
 C         -8.467184   -2.027083   -0.067067
 C         -9.625968   -1.265004   -0.062199
 C         -9.686190    0.214610   -0.017387
 O         -8.747509    1.004065    0.018271
 C        -11.119504    0.582588   -0.023160
 C        -11.670004    1.850786    0.009896
 C        -13.063628    1.969028   -0.003362
 C        -13.860969    0.810763   -0.049627
 C        -13.290188   -0.468621   -0.083042
 C        -11.898542   -0.587953   -0.069616
 C        -10.996759   -1.765423   -0.096579
 C        -11.431676   -3.089316   -0.147800
 C        -12.807651   -3.461632   -0.175561
 N        -13.918715   -3.816379   -0.199792
 C        -10.571036   -4.225262   -0.180283
 N         -9.912405   -5.188205   -0.208995
 H         -8.611664   -3.100748   -0.098269
 H        -11.036940    2.730654    0.044928
 H        -13.950906   -1.323099   -0.117844
 C          3.183178   -1.669751   -1.394898
 C          4.355146   -2.437969   -1.466716
 C          4.788794   -2.971934   -2.679522
 C          4.073418   -2.761411   -3.866126
 C          2.910821   -1.983990   -3.792594
 C          2.473590   -1.444959   -2.582501
 H          4.933498   -2.633217   -0.569445
 H          5.701830   -3.562189   -2.700683
 H          2.335980   -1.792712   -4.695753
 H          1.571221   -0.842014   -2.572847
 C          3.052993   -1.858470    1.179237
 C          2.824569   -3.243253    1.161184
 C          3.000448   -4.013264    2.309323
 C          3.413041   -3.435469    3.518460
 C          3.631636   -2.053006    3.534433
 C          3.452964   -1.276349    2.388438
 H          2.517934   -3.730314    0.240590
 H          2.816365   -5.084173    2.262716
 H          3.947092   -1.570779    4.456679
 H          3.624948   -0.206121    2.447134
 C         -3.052967    1.858487   -1.178996
 C         -2.824910    3.243329   -1.160764
 C         -3.000783    4.013407   -2.308857
 C         -3.413010    3.435623   -3.518126
 C         -3.631250    2.053107   -3.534273
 C         -3.452584    1.276382   -2.388322
 H         -2.518578    3.730379   -0.240062
 H         -2.816989    5.084359   -2.262111
 H         -3.946422    1.570891   -4.456621
 H         -3.624288    0.206118   -2.447152
 C         -3.183198    1.669724    1.395116
 C         -4.354969    2.438253    1.466807
 C         -4.788665    2.972243    2.679585
 C         -4.073530    2.761438    3.866285
 C         -2.911125    1.983717    3.792874
 C         -2.473847    1.444663    2.582809
 H         -4.933120    2.633734    0.569456
 H         -5.701544    3.562743    2.700648
 H         -2.336474    1.792223    4.696108
 H         -1.571633    0.841486    2.573249
 C          4.529172   -3.370047   -5.171073
 H          4.154904   -4.396712   -5.280893
 H          4.163944   -2.796700   -6.029296
 C          3.638446   -4.280074    4.750184
 H          3.517991   -3.692439    5.666082
 H          2.940872   -5.123516    4.790678
 C         -3.638410    4.280294   -4.749806
 H         -2.940959    5.123844   -4.790157
 H         -3.517767    3.692751   -5.665738
 C         -4.529324    3.370097    5.171207
 H         -4.164397    2.796579    6.029443
 H         -4.154786    4.396649    5.281170
 H          5.621773   -3.416390   -5.230612
 H          4.653761   -4.698296    4.761840
 H         -4.653786    4.698366   -4.761536
 H         -5.621922    3.416743    5.230572
Se         -3.099183   -3.175515   -0.043347
Se          3.099196    3.175500    0.043497
Cl        -15.600718    0.926136   -0.067138
Cl        -13.771954    3.560289    0.038333
Cl         13.771951   -3.560327   -0.038607
Cl         15.600727   -0.926174    0.066650
