       126
S0: Total Energy = -4807.32463846
 C          7.268827   -0.117976   -0.043517
 C          6.439147   -1.259815   -0.064708
 C          5.082290   -0.961593   -0.048106
 C          4.849684    0.417008   -0.008352
 C          3.438179    0.645078    0.012726
 C          2.772004   -0.565824    0.011661
 C          1.350949   -0.416013    0.000707
 C          0.980966    0.971919    0.003443
 C         -0.338040    1.393233    0.001627
 S          6.284375    1.367853    0.006770
 C          3.759142   -1.745530   -0.029231
 S          2.395318    2.042563    0.009605
 H          6.861346   -2.258375   -0.092004
 C         -7.268836    0.118022    0.043519
 C         -6.439158    1.259863    0.064723
 C         -5.082301    0.961640    0.048132
 C         -4.849694   -0.416961    0.008379
 C         -3.438189   -0.645032   -0.012692
 C         -2.772014    0.565871   -0.011624
 C         -1.350959    0.416060   -0.000668
 C         -0.980976   -0.971873   -0.003404
 C          0.338030   -1.393186   -0.001588
 S         -6.284385   -1.367806   -0.006750
 C         -3.759153    1.745576    0.029265
 S         -2.395328   -2.042516   -0.009568
 H         -6.861358    2.258422    0.092014
 C          8.677534   -0.257432   -0.061167
 C          9.735722    0.632063   -0.045823
 C          9.622070    2.105956   -0.001425
 O          8.592067    2.774378    0.022769
 C         10.999882    2.643627    0.008847
 C         11.398693    3.972431    0.048423
 C         12.768287    4.247626    0.051128
 C         13.694621    3.198534    0.014458
 C         13.287290    1.860478   -0.025665
 C         11.916971    1.576773   -0.028520
 C         11.160606    0.296250   -0.066149
 C         11.747557   -0.959056   -0.113638
 C         13.159876   -1.172334   -0.127279
 N         14.301324   -1.407302   -0.140290
 C         11.025111   -2.190372   -0.156407
 N         10.483982   -3.222360   -0.193376
 H          8.945570   -1.307712   -0.091795
 H         10.655473    4.763402    0.076325
 H         13.118139    5.275222    0.081723
 H         14.757167    3.423071    0.017105
 H         14.037177    1.081970   -0.052982
 C         -8.677543    0.257464    0.061150
 C         -9.735702   -0.632063    0.045792
 C         -9.621980   -2.105949    0.001389
 O         -8.591941   -2.774321   -0.022738
 C        -10.999766   -2.643685   -0.008921
 C        -11.398515   -3.972507   -0.048520
 C        -12.768097   -4.247764   -0.051259
 C        -13.694479   -3.198715   -0.014599
 C        -13.287211   -1.860641    0.025549
 C        -11.916905   -1.576873    0.028438
 C        -11.160605   -0.296316    0.066103
 C        -11.747634    0.958954    0.113596
 C        -13.159968    1.172133    0.127203
 N        -14.301437    1.407006    0.140185
 C        -11.025278    2.190322    0.156395
 N        -10.484242    3.222357    0.193400
 H         -8.945598    1.307738    0.091775
 H        -10.655258   -4.763443   -0.076414
 H        -13.117901   -5.275376   -0.081874
 H        -14.757016   -3.423301   -0.017272
 H        -14.037133   -1.082166    0.052858
 C          3.736455   -2.620936    1.240302
 C          3.021993   -2.260591    2.386480
 C          3.084231   -3.039888    3.545392
 C          3.860552   -4.200450    3.602230
 C          4.581782   -4.556056    2.451804
 C          4.522354   -3.784541    1.295539
 H          2.412339   -1.363270    2.389940
 H          2.515566   -2.732142    4.419849
 H          5.200882   -5.450377    2.461835
 H          5.087253   -4.097392    0.421941
 C          3.525166   -2.549464   -1.330804
 C          4.002452   -2.069639   -2.558777
 C          3.734372   -2.745380   -3.747164
 C          2.978937   -3.926020   -3.759755
 C          2.495007   -4.396686   -2.534267
 C          2.761489   -3.723237   -1.340663
 H          4.589680   -1.156804   -2.592314
 H          4.121418   -2.347071   -4.682399
 H          1.900816   -5.307302   -2.506487
 H          2.378893   -4.129938   -0.410026
 C         -3.525184    2.549509    1.330840
 C         -4.002466    2.069676    2.558813
 C         -3.734392    2.745416    3.747201
 C         -2.978969    3.926063    3.759795
 C         -2.495044    4.396738    2.534308
 C         -2.761520    3.723290    1.340703
 H         -4.589685    1.156836    2.592347
 H         -4.121434    2.347102    4.682435
 H         -1.900863    5.307360    2.506531
 H         -2.378929    4.129997    0.410067
 C         -3.736461    2.620984   -1.240267
 C         -3.021987    2.260642   -2.386439
 C         -3.084220    3.039939   -3.545352
 C         -3.860548    4.200496   -3.602197
 C         -4.581790    4.556097   -2.451777
 C         -4.522366    3.784584   -1.295511
 H         -2.412327    1.363326   -2.389894
 H         -2.515546    2.732195   -4.419804
 H         -5.200895    5.450414   -2.461814
 H         -5.087275    4.097431   -0.421919
 C          3.913777   -5.055109    4.846474
 H          3.489925   -4.531860    5.709198
 H          3.348106   -5.986568    4.713686
 C          2.720757   -4.674397   -5.046016
 H          1.810379   -5.279182   -4.981508
 H          2.615741   -3.988934   -5.893807
 C         -2.720796    4.674440    5.046058
 H         -2.615741    3.988973    5.893842
 H         -1.810443    5.279260    4.981542
 C         -3.913768    5.055154   -4.846442
 H         -3.348099    5.986613   -4.713652
 H         -3.489912    4.531905   -5.709164
 H         -4.943508    5.338107   -5.093168
 H         -3.549375    5.355617    5.281427
 H          3.549313   -5.355608   -5.281365
 H          4.943517   -5.338064    5.093195
 H         -0.592240    2.446763    0.007892
 H          0.592231   -2.446716   -0.007853
       126
T1: Total Energy = -4807.28193936
 C          7.251920   -0.109138   -0.037635
 C          6.407188   -1.255853   -0.061179
 C          5.063174   -0.953261   -0.038826
 C          4.825319    0.441421    0.003783
 C          3.443177    0.668532    0.019256
 C          2.750423   -0.566248    0.012119
 C          1.358394   -0.413521   -0.000155
 C          0.977580    0.982125    0.010716
 C         -0.328959    1.400108    0.010914
 S          6.280120    1.388228    0.017358
 C          3.742176   -1.742599   -0.026562
 S          2.396951    2.057708    0.025550
 H          6.827276   -2.254762   -0.092555
 C         -7.251937    0.109202    0.037517
 C         -6.407211    1.255916    0.061265
 C         -5.063193    0.953317    0.039286
 C         -4.825328   -0.441366   -0.003239
 C         -3.443183   -0.668475   -0.018451
 C         -2.750431    0.566308   -0.011230
 C         -1.358402    0.413581    0.001151
 C         -0.977587   -0.982065   -0.009704
 C          0.328951   -1.400048   -0.009893
 S         -6.280130   -1.388169   -0.017161
 C         -3.742195    1.742655    0.027327
 S         -2.396955   -2.057651   -0.024596
 H         -6.827300    2.254830    0.092489
 C          8.652935   -0.258327   -0.056755
 C          9.722138    0.633017   -0.041146
 C          9.616037    2.109653    0.004322
 O          8.588767    2.782450    0.030646
 C         10.995608    2.641856    0.011993
 C         11.401709    3.967683    0.051029
 C         12.773845    4.235566    0.050788
 C         13.691988    3.180673    0.011753
 C         13.275935    1.843782   -0.027831
 C         11.904975    1.568349   -0.027700
 C         11.137228    0.293120   -0.063726
 C         11.719001   -0.971518   -0.111648
 C         13.128649   -1.191085   -0.127407
 N         14.269753   -1.431161   -0.142129
 C         10.993468   -2.199222   -0.152306
 N         10.452284   -3.232071   -0.187732
 H          8.918585   -1.308491   -0.089409
 H         10.663168    4.763067    0.080788
 H         13.129848    5.261049    0.080879
 H         14.756208    3.397729    0.011995
 H         14.021162    1.060843   -0.057103
 C         -8.652957    0.258379    0.056194
 C         -9.722123   -0.633002    0.040300
 C         -9.615925   -2.109634   -0.005048
 O         -8.588606   -2.782372   -0.030990
 C        -10.995467   -2.641907   -0.013277
 C        -11.401487   -3.967755   -0.052464
 C        -12.773610   -4.235705   -0.052779
 C        -13.691821   -3.180857   -0.014127
 C        -13.275849   -1.843945    0.025613
 C        -11.904903   -1.568445    0.026030
 C        -11.137238   -0.293176    0.062363
 C        -11.719107    0.971424    0.110118
 C        -13.128776    1.190899    0.125294
 N        -14.269906    1.430879    0.139530
 C        -10.993675    2.199175    0.151152
 N        -10.452587    3.232063    0.186885
 H         -8.918640    1.308539    0.088699
 H        -10.662895   -4.763103   -0.081910
 H        -13.129550   -5.261206   -0.083005
 H        -14.756030   -3.397966   -0.014799
 H        -14.021127   -1.061042    0.054570
 C          3.717885   -2.622640    1.239987
 C          3.016596   -2.257270    2.392648
 C          3.079321   -3.039892    3.549016
 C          3.844862   -4.208153    3.597241
 C          4.554809   -4.567368    2.441015
 C          4.494269   -3.792901    1.286773
 H          2.417377   -1.352891    2.403651
 H          2.520958   -2.728238    4.428650
 H          5.166125   -5.466982    2.444606
 H          5.051317   -4.108326    0.409240
 C          3.518383   -2.539215   -1.333661
 C          4.004791   -2.050949   -2.554647
 C          3.745898   -2.719467   -3.749525
 C          2.990240   -3.899274   -3.775220
 C          2.497067   -4.378334   -2.555937
 C          2.754971   -3.713421   -1.356305
 H          4.592221   -1.138021   -2.579081
 H          4.140321   -2.315420   -4.679073
 H          1.903461   -5.289544   -2.538723
 H          2.367547   -4.127404   -0.430886
 C         -3.518639    2.539162    1.334537
 C         -4.005305    2.050830    2.555393
 C         -3.746608    2.719246    3.750372
 C         -2.990900    3.899015    3.776300
 C         -2.497478    4.378148    2.557146
 C         -2.755183    3.713336    1.357417
 H         -4.592783    1.137927    2.579649
 H         -4.141230    2.315148    4.679813
 H         -1.903831    5.289335    2.540114
 H         -2.367578    4.127382    0.432101
 C         -3.717666    2.622789   -1.239145
 C         -3.016288    2.257408   -2.391750
 C         -3.078805    3.040098   -3.548082
 C         -3.844224    4.208440   -3.596327
 C         -4.554261    4.567665   -2.440161
 C         -4.493924    3.793131   -1.285951
 H         -2.417160    1.352967   -2.402732
 H         -2.520376    2.728436   -4.427672
 H         -5.165486    5.467340   -2.443772
 H         -5.051039    4.108567   -0.408464
 C          3.899412   -5.065992    4.839071
 H          3.487536   -4.540663    5.706269
 H          3.323559   -5.991451    4.708313
 C          2.740954   -4.639936   -5.067496
 H          1.815042   -5.222578   -5.022912
 H          2.670983   -3.951547   -5.916336
 C         -2.741824    4.639566    5.068681
 H         -2.671992    3.951103    5.917473
 H         -1.815905    5.222210    5.024299
 C         -3.898543    5.066354   -4.838116
 H         -3.322513    5.991693   -4.707281
 H         -3.486726    4.540990   -5.705320
 H         -4.927285    5.360197   -5.075814
 H         -3.558331    5.340827    5.286408
 H          3.557426   -5.341217   -5.285294
 H          4.928224   -5.359620    5.076733
 H         -0.587527    2.452277    0.024564
 H          0.587521   -2.452217   -0.023549
       126
S1: Total Energy = -4807.26269656
 C          7.255752   -0.113664   -0.037141
 C          6.419107   -1.256311   -0.060191
 C          5.067126   -0.952825   -0.039083
 C          4.832973    0.434116    0.001913
 C          3.439069    0.661191    0.017132
 C          2.754952   -0.566656    0.012546
 C          1.356222   -0.414680    0.000136
 C          0.978113    0.979471    0.007406
 C         -0.330482    1.398961    0.006782
 S          6.282491    1.381274    0.016604
 C          3.747137   -1.742066   -0.025900
 S          2.398277    2.051789    0.019363
 H          6.838325   -2.255579   -0.090565
 C         -7.255750    0.113653    0.037199
 C         -6.419105    1.256301    0.060226
 C         -5.067124    0.952816    0.039084
 C         -4.832972   -0.434125   -0.001912
 C         -3.439069   -0.661200   -0.017161
 C         -2.754951    0.566647   -0.012590
 C         -1.356221    0.414670   -0.000195
 C         -0.978112   -0.979481   -0.007467
 C          0.330482   -1.398971   -0.006842
 S         -6.282489   -1.381284   -0.016558
 C         -3.747135    1.742057    0.025868
 S         -2.398277   -2.051799   -0.019409
 H         -6.838324    2.255568    0.090600
 C          8.664698   -0.259842   -0.056290
 C          9.727674    0.630488   -0.041156
 C          9.616617    2.108072    0.006286
 O          8.586159    2.776078    0.033678
 C         10.993603    2.643888    0.014980
 C         11.395478    3.970721    0.055889
 C         12.767008    4.243608    0.056064
 C         13.688426    3.191057    0.015337
 C         13.277595    1.852962   -0.026229
 C         11.906641    1.571293   -0.026313
 C         11.147545    0.295834   -0.064498
 C         11.732088   -0.969518   -0.115248
 C         13.141421   -1.186055   -0.129443
 N         14.283898   -1.422186   -0.142710
 C         11.008640   -2.197140   -0.160753
 N         10.466692   -3.230129   -0.200250
 H          8.930628   -1.310130   -0.088523
 H         10.654185    4.763559    0.086626
 H         13.119779    5.270155    0.087654
 H         14.751963    3.411866    0.015797
 H         14.025335    1.072417   -0.056877
 C         -8.664696    0.259833    0.056350
 C         -9.727676   -0.630493    0.041225
 C         -9.616627   -2.108078   -0.006185
 O         -8.586175   -2.776092   -0.033557
 C        -10.993616   -2.643887   -0.014858
 C        -11.395498   -3.970720   -0.055728
 C        -12.767029   -4.243599   -0.055892
 C        -13.688442   -3.191043   -0.015192
 C        -13.277604   -1.852949    0.026334
 C        -11.906648   -1.571286    0.026405
 C        -11.147545   -0.295830    0.064551
 C        -11.732081    0.969527    0.115244
 C        -13.141413    1.186072    0.129440
 N        -14.283889    1.422210    0.142708
 C        -11.008627    2.197148    0.160682
 N        -10.466672    3.230136    0.200106
 H         -8.930624    1.310122    0.088566
 H        -10.654209   -4.763561   -0.086446
 H        -13.119805   -5.270145   -0.087451
 H        -14.751980   -3.411846   -0.015641
 H        -14.025340   -1.072399    0.056963
 C          3.724225   -2.621651    1.240609
 C          3.022679   -2.256954    2.393422
 C          3.086916   -3.039282    3.549835
 C          3.853991   -4.206650    3.597925
 C          4.563755   -4.565335    2.441430
 C          4.501851   -3.791172    1.287064
 H          2.422323   -1.353312    2.404683
 H          2.528500   -2.728260    4.429648
 H          5.176126   -5.464201    2.444905
 H          5.058724   -4.106183    0.409275
 C          3.521598   -2.537503   -1.333196
 C          4.006655   -2.047679   -2.554417
 C          3.747427   -2.715641   -3.749359
 C          2.992642   -3.896161   -3.775076
 C          2.500707   -4.376391   -2.555669
 C          2.758964   -3.712055   -1.355701
 H          4.593098   -1.134106   -2.578252
 H          4.140792   -2.310789   -4.678981
 H          1.908202   -5.288283   -2.538630
 H          2.372943   -4.127051   -0.430137
 C         -3.521574    2.537513    1.333149
 C         -4.006589    2.047691    2.554388
 C         -3.747346    2.715672    3.749315
 C         -2.992586    3.896209    3.775000
 C         -2.500692    4.376435    2.555575
 C         -2.758965    3.712080    1.355621
 H         -4.593012    1.134105    2.578248
 H         -4.140677    2.310821    4.678953
 H         -1.908206    5.288340    2.538511
 H         -2.372974    4.127072    0.430043
 C         -3.724245    2.621629   -1.240651
 C         -3.022697    2.256939   -2.393465
 C         -3.086949    3.039263   -3.549880
 C         -3.854041    4.206620   -3.597971
 C         -4.563805    4.565298   -2.441474
 C         -4.501887    3.791140   -1.287106
 H         -2.422327    1.353306   -2.404725
 H         -2.528532    2.728246   -4.429694
 H         -5.176189    5.464156   -2.444949
 H         -5.058760    4.106145   -0.409316
 C          3.910257   -5.064057    4.839924
 H          3.497247   -4.539423    5.706987
 H          3.336406   -5.990765    4.709262
 C          2.743258   -4.635809   -5.067816
 H          1.830586   -5.238172   -5.014993
 H          2.648513   -3.945006   -5.912367
 C         -2.743186    4.635877    5.067725
 H         -2.648379    3.945084    5.912278
 H         -1.830541    5.238278    5.014864
 C         -3.910322    5.064022   -4.839972
 H         -3.336482    5.990737   -4.709315
 H         -3.497311    4.539391   -5.707036
 H         -4.939753    5.355393   -5.077669
 H         -3.571945    5.318138    5.298992
 H          3.571997   -5.318104   -5.299057
 H          4.939683   -5.355441    5.077625
 H         -0.588037    2.451488    0.017907
 H          0.588038   -2.451497   -0.017967
