       129
S0: Total Energy = -3779.43843340
 O         -6.378481    5.468172    3.966228
 O         -3.265314    5.850534    0.644589
 C         -5.868868    4.985162    2.960365
 C         -6.303548    3.695386    2.380586
 C         -7.347670    2.997965    2.966291
 H         -7.819845    3.406306    3.853115
 C         -7.802222    1.800345    2.404288
 H         -8.636551    1.297428    2.878554
 C         -7.207111    1.255490    1.264159
 C         -5.365260    1.356322   -0.418494
 C         -6.074779    1.912760    0.694710
 C         -5.664169    3.171199    1.231224
 C         -4.630051    3.907527    0.604766
 C         -4.172780    5.202194    1.157503
 C         -4.417860    2.161456   -1.057049
 H         -3.935114    1.815202   -1.959466
 C         -4.055424    3.416920   -0.555575
 H         -3.303339    4.011645   -1.061927
 O         -6.466875   -4.296447   -3.458957
 O        -10.291274   -4.029207   -0.975204
 C         -7.129358   -3.695600   -2.620224
 C         -6.649217   -2.449089   -1.977171
 C         -5.389600   -1.975036   -2.279991
 H         -4.769687   -2.554503   -2.955250
 C         -4.874335   -0.785900   -1.718920
 C         -5.696111   -0.009337   -0.869788
 C         -7.727782    0.057571    0.596202
 C         -6.950126   -0.560755   -0.435881
 C         -7.435169   -1.770283   -1.017367
 C         -8.689502   -2.303019   -0.636727
 C         -9.203169   -3.541913   -1.262490
 C         -8.959945   -0.501188    0.943473
 H         -9.575621   -0.029108    1.699653
 C         -9.444007   -1.660688    0.330608
 H        -10.406733   -2.074534    0.610022
 N         -4.826838    5.658840    2.311034
 N         -8.390881   -4.159217   -2.221331
 C         -4.407946    6.934970    2.902388
 H         -5.251421    7.628930    2.919923
 H         -4.069243    6.774086    3.928509
 H         -3.600550    7.334096    2.293695
 C         -8.918877   -5.384990   -2.831771
 H         -8.182547   -5.744030   -3.546268
 H         -9.098153   -6.135732   -2.058754
 H         -9.865008   -5.169978   -3.333756
 C          4.874310    0.785537   -1.718756
 C          5.696113    0.009156   -0.869480
 C          5.389497    1.974649   -2.279948
 C          6.950039    0.560763   -0.435552
 C          5.365400   -1.356500   -0.418069
 C          6.649045    2.448869   -1.977103
 H          4.769569    2.553973   -2.955315
 C          7.727687   -0.057351    0.596665
 C          7.434996    1.770269   -1.017153
 C          4.418177   -2.161837   -1.056630
 C          6.074904   -1.912730    0.695250
 C          7.129100    3.695350   -2.620278
 C          8.959759    0.501589    0.943963
 C          7.207106   -1.255254    1.264718
 C          8.689243    2.303189   -0.636486
 C          4.055879   -3.417305   -0.555066
 H          3.935470   -1.815749   -1.959132
 C          5.664425   -3.171173    1.231855
 O          6.466600    4.296038   -3.459112
 N          8.390536    4.159162   -2.221337
 C          9.443741    1.661066    0.330992
 H          9.575429    0.029671    1.700250
 C          7.802197   -1.799912    2.404952
 C          9.202826    3.542055   -1.262372
 C          4.630471   -3.907713    0.605377
 H          3.303931   -4.012192   -1.061431
 C          6.303777   -3.695155    2.381325
 C          8.918433    5.384932   -2.831870
 H         10.406400    2.075052    0.610428
 H          8.636426   -1.296838    2.879229
 C          7.347756   -2.997531    2.967046
 O         10.290843    4.029521   -0.975042
 C          4.173346   -5.202399    1.158194
 C          5.869226   -4.984931    2.961199
 H          9.097595    6.135765   -2.058916
 H          9.864609    5.169970   -3.333792
 H          8.182099    5.743826   -3.546436
 H          7.819914   -3.405717    3.853950
 O          3.266012   -5.850916    0.645271
 N          4.827359   -5.658829    2.311836
 O          6.378817   -5.467767    3.967157
 C          4.408596   -6.934960    2.903282
 H          3.601339   -7.334282    2.294534
 H          5.252179   -7.628782    2.920998
 H          4.069740   -6.774015    3.929342
 C         -3.438766   -0.505161   -2.016607
 C         -2.983506   -0.452885   -3.346855
 C         -2.509590   -0.378242   -0.965744
 C         -1.634827   -0.250652   -3.643942
 H         -3.699777   -0.554313   -4.157390
 C         -1.169993   -0.180221   -1.259125
 H         -2.847716   -0.435809    0.064881
 C         -0.724814   -0.110665   -2.594916
 H         -1.308342   -0.202434   -4.679091
 C         -0.000064   -0.000022   -0.286013
 C          0.724868    0.109992   -2.594889
 C          1.169945    0.179892   -1.259082
 C          0.193433   -1.170307    0.685580
 C         -0.193648    1.170556    0.685209
 C          1.634960    0.249719   -3.643882
 C          2.509520    0.377991   -0.965651
 C          0.428472   -2.509026    0.395121
 C          0.122621   -0.724299    2.019320
 C         -0.428679    2.509184    0.394326
 C         -0.122944    0.724953    2.019090
 C          2.983612    0.452048   -3.346745
 H          1.308551    0.201241   -4.679043
 C          3.438774    0.504657   -2.016477
 H          2.847567    0.435838    0.064985
 C          0.597661   -3.411874    1.451802
 H          0.484681   -2.853658   -0.634103
 C          0.283982   -1.626923    3.073045
 C         -0.597966    3.412351    1.450718
 H         -0.484809    2.853503   -0.635008
 C         -0.284400    1.627895    3.072528
 H          3.699941    0.553291   -4.157252
 C          0.523604   -2.971747    2.778663
 H          0.804687   -4.456429    1.238208
 H          0.229609   -1.292377    4.105750
 C         -0.524012    2.972628    2.777719
 H         -0.804987    4.456839    1.236790
 H         -0.230111    1.293662    4.105340
 H          0.656151   -3.683358    3.589173
 H         -0.656634    3.684483    3.588002
       129
T1: Total Energy = -3779.39496091
 O         -6.169932    5.321020    4.162173
 O         -3.217715    5.849892    0.708324
 C         -5.695078    4.875072    3.118739
 C         -6.136911    3.603224    2.522055
 C         -7.156869    2.865937    3.149896
 H         -7.581728    3.250327    4.070282
 C         -7.610039    1.690436    2.593842
 H         -8.400438    1.149003    3.098676
 C         -7.050661    1.170492    1.386389
 C         -5.313452    1.362421   -0.390327
 C         -5.972782    1.873077    0.774190
 C         -5.548533    3.122699    1.331868
 C         -4.547420    3.887965    0.686668
 C         -4.089795    5.169974    1.249583
 C         -4.377013    2.221668   -1.056119
 H         -3.974817    1.924634   -2.013866
 C         -4.007090    3.439602   -0.530454
 H         -3.299099    4.075863   -1.048765
 O         -6.673348   -3.932598   -3.824972
 O        -10.201274   -4.004405   -0.914141
 C         -7.245124   -3.434759   -2.856175
 C         -6.708925   -2.260697   -2.143651
 C         -5.464414   -1.752654   -2.519927
 H         -4.911609   -2.289028   -3.282882
 C         -4.881935   -0.665412   -1.874682
 C         -5.656980    0.057593   -0.874186
 C         -7.562149   -0.004275    0.740319
 C         -6.860074   -0.545584   -0.381176
 C         -7.390159   -1.705775   -1.031029
 C         -8.589885   -2.291145   -0.583970
 C         -9.155245   -3.464810   -1.271107
 C         -8.763555   -0.644548    1.172373
 H         -9.315936   -0.239129    2.010722
 C         -9.265204   -1.750809    0.526921
 H        -10.187006   -2.220063    0.851947
 N         -4.693003    5.582656    2.445614
 N         -8.451970   -3.960875   -2.374621
 C         -4.266856    6.848291    3.053046
 H         -5.116009    7.532635    3.118598
 H         -3.890067    6.665770    4.062095
 H         -3.486406    7.271605    2.425736
 C         -9.034532   -5.125491   -3.050258
 H         -8.394558   -5.374604   -3.892947
 H         -9.094171   -5.967102   -2.355883
 H        -10.043721   -4.886381   -3.393039
 C          4.885000    0.704288   -1.747567
 C          5.675848   -0.065911   -0.864018
 C          5.434140    1.866453   -2.332311
 C          6.933952    0.470731   -0.424090
 C          5.308398   -1.411532   -0.382678
 C          6.698060    2.322653   -2.020164
 H          4.838035    2.440135   -3.033494
 C          7.681383   -0.135829    0.636988
 C          7.453459    1.654113   -1.029136
 C          4.354158   -2.212945   -1.015639
 C          5.987994   -1.953117    0.756129
 C          7.214534    3.541680   -2.687503
 C          8.918700    0.407255    0.990615
 C          7.124958   -1.304957    1.326800
 C          8.712099    2.171202   -0.641376
 C          3.956417   -3.446675   -0.487619
 H          3.894558   -1.881290   -1.935500
 C          5.542066   -3.188165    1.318054
 O          6.578763    4.132402   -3.553611
 N          8.477787    3.990978   -2.278382
 C          9.436726    1.539909    0.355608
 H          9.511795   -0.056379    1.769699
 C          7.690394   -1.832578    2.489896
 C          9.261956    3.381970   -1.291146
 C          4.502405   -3.918772    0.693956
 H          3.199777   -4.038464   -0.990585
 C          6.151824   -3.695545    2.490780
 C          9.040687    5.189768   -2.910994
 H         10.402957    1.941576    0.640649
 H          8.528058   -1.335501    2.964432
 C          7.201460   -3.005305    3.075143
 O         10.355746    3.853416   -0.999382
 C          4.009544   -5.189534    1.271700
 C          5.680353   -4.960437    3.096352
 H          9.232595    5.952059   -2.152576
 H          9.984957    4.940926   -3.400862
 H          8.319040    5.551191   -3.639151
 H          7.651089   -3.400159    3.979633
 O          3.097557   -5.832225    0.759921
 N          4.635451   -5.629582    2.446938
 O          6.163050   -5.427127    4.122855
 C          4.181511   -6.881801    3.063212
 H          3.377337   -7.281331    2.450545
 H          5.011053   -7.590770    3.113670
 H          3.828141   -6.687993    4.078647
 C         -3.451087   -0.409040   -2.147959
 C         -2.963320   -0.418414   -3.473625
 C         -2.534738   -0.244825   -1.083377
 C         -1.610149   -0.248289   -3.749713
 H         -3.665146   -0.532310   -4.294327
 C         -1.186237   -0.096422   -1.357643
 H         -2.889965   -0.261360   -0.057706
 C         -0.714796   -0.087909   -2.686780
 H         -1.263177   -0.238713   -4.779084
 C         -0.026481    0.072395   -0.370195
 C          0.736177    0.098266   -2.669741
 C          1.161930    0.197843   -1.328647
 C          0.119376   -1.090589    0.619813
 C         -0.194100    1.261699    0.582183
 C          1.665476    0.185273   -3.708888
 C          2.501046    0.372536   -1.020090
 C          0.315744   -2.439823    0.350300
 C          0.047543   -0.623498    1.946012
 C         -0.379754    2.603455    0.270851
 C         -0.151541    0.832463    1.922819
 C          3.012759    0.365560   -3.396004
 H          1.353628    0.113553   -4.747084
 C          3.448416    0.446702   -2.059796
 H          2.825171    0.453186    0.013398
 C          0.444221   -3.332356    1.421409
 H          0.372949   -2.800765   -0.673276
 C          0.168465   -1.515636    3.013955
 C         -0.528170    3.526028    1.313596
 H         -0.413718    2.935996   -0.763308
 C         -0.292776    1.754397    2.962403
 H          3.744029    0.426801   -4.196997
 C          0.368875   -2.871313    2.741057
 H          0.620517   -4.385857    1.225256
 H          0.112822   -1.164844    4.041150
 C         -0.483127    3.102252    2.646982
 H         -0.698561    4.573653    1.084789
 H         -0.259805    1.432592    4.000027
 H          0.469515   -3.575188    3.562787
 H         -0.599308    3.829517    3.445976
       129
S1: Total Energy = -3779.37096650
 O         -5.961948    5.262510    4.274297
 O         -3.143452    5.878380    0.730983
 C         -5.525863    4.847519    3.207601
 C         -5.995242    3.582964    2.592671
 C         -6.992320    2.845961    3.216663
 H         -7.400161    3.203310    4.155627
 C         -7.481883    1.678821    2.626224
 H         -8.280412    1.147453    3.129742
 C         -6.967147    1.197316    1.415214
 C         -5.256170    1.411321   -0.386983
 C         -5.884874    1.896612    0.803616
 C         -5.441047    3.126616    1.374731
 C         -4.461553    3.906002    0.713023
 C         -3.987282    5.188621    1.291761
 C         -4.362376    2.262978   -1.055980
 H         -3.972359    1.981257   -2.024599
 C         -3.966892    3.487830   -0.513275
 H         -3.265173    4.122827   -1.041548
 O         -6.659498   -3.886521   -3.849493
 O        -10.228629   -3.893616   -0.996541
 C         -7.238974   -3.386007   -2.893730
 C         -6.687355   -2.211264   -2.168900
 C         -5.452147   -1.722049   -2.530451
 H         -4.902144   -2.243595   -3.305528
 C         -4.857936   -0.624215   -1.863829
 C         -5.618979    0.087048   -0.891113
 C         -7.530998    0.042333    0.718722
 C         -6.840325   -0.490826   -0.417574
 C         -7.378744   -1.638530   -1.071469
 C         -8.593726   -2.206475   -0.638612
 C         -9.171129   -3.379257   -1.338070
 C         -8.728081   -0.561440    1.124104
 H         -9.277381   -0.164933    1.969185
 C         -9.258922   -1.663224    0.453625
 H        -10.192938   -2.110224    0.775467
 N         -4.548484    5.571906    2.515723
 N         -8.458347   -3.891237   -2.428639
 C         -4.103404    6.826400    3.137346
 H         -4.953029    7.503218    3.251157
 H         -3.686700    6.619799    4.125491
 H         -3.349786    7.269232    2.491277
 C         -9.050720   -5.050006   -3.110176
 H         -8.392412   -5.326298   -3.929756
 H         -9.152403   -5.879222   -2.406660
 H        -10.041473   -4.787769   -3.487451
 C          4.903136    0.587827   -1.851476
 C          5.656775   -0.151881   -0.879169
 C          5.484327    1.688741   -2.482693
 C          6.894299    0.401763   -0.413587
 C          5.262755   -1.453620   -0.375356
 C          6.750264    2.158433   -2.136692
 H          4.926612    2.246975   -3.227096
 C          7.591071   -0.167287    0.702468
 C          7.450107    1.552361   -1.064404
 C          4.310192   -2.275331   -1.025945
 C          5.888975   -1.961057    0.808940
 C          7.297931    3.323657   -2.837933
 C          8.826646    0.398887    1.089834
 C          7.008882   -1.298552    1.397851
 C          8.691886    2.081356   -0.643114
 C          3.864458   -3.460421   -0.463112
 H          3.936776   -1.993295   -2.001052
 C          5.397337   -3.170579    1.401914
 O          6.714532    3.878236   -3.774217
 N          8.543181    3.790930   -2.386306
 C          9.367627    1.489546    0.430292
 H          9.385158   -0.039497    1.908397
 C          7.530211   -1.800010    2.612714
 C          9.276262    3.240130   -1.322973
 C          4.358474   -3.899699    0.769385
 H          3.128524   -4.072470   -0.973176
 C          5.958589   -3.641564    2.612937
 C          9.143306    4.947661   -3.055181
 H         10.323185    1.904627    0.733026
 H          8.349517   -1.286192    3.101888
 C          7.009148   -2.935490    3.210916
 O         10.360012    3.739155   -1.009870
 C          3.827478   -5.127583    1.367549
 C          5.450042   -4.862413    3.242524
 H          9.309207    5.750791   -2.332862
 H         10.108661    4.670475   -3.486732
 H          8.458276    5.271784   -3.834849
 H          7.415068   -3.306222    4.146116
 O          2.910947   -5.782376    0.857080
 N          4.411617   -5.535473    2.577754
 O          5.882069   -5.314173    4.306252
 C          3.918598   -6.756370    3.219528
 H          3.140440   -7.173516    2.584931
 H          4.737791   -7.469417    3.340128
 H          3.519713   -6.523700    4.210446
 C         -3.432239   -0.380383   -2.146960
 C         -2.952668   -0.409658   -3.484689
 C         -2.507482   -0.220141   -1.085018
 C         -1.609441   -0.244571   -3.773350
 H         -3.662424   -0.527321   -4.297241
 C         -1.165936   -0.086496   -1.365773
 H         -2.858552   -0.232843   -0.058408
 C         -0.700443   -0.083298   -2.710260
 H         -1.267902   -0.241423   -4.803566
 C          0.004004    0.075922   -0.394652
 C          0.731042    0.083869   -2.709008
 C          1.182033    0.169928   -1.364245
 C          0.136102   -1.067629    0.616622
 C         -0.151963    1.288325    0.530080
 C          1.650973    0.157919   -3.770274
 C          2.525881    0.301398   -1.077881
 C          0.343195   -2.420497    0.374990
 C          0.051566   -0.571964    1.934039
 C         -0.310491    2.626782    0.189549
 C         -0.133759    0.881755    1.880436
 C          2.996341    0.302707   -3.474963
 H          1.319430    0.094907   -4.802341
 C          3.462412    0.361404   -2.134762
 H          2.873192    0.363818   -0.051857
 C          0.468436   -3.288204    1.465431
 H          0.423008   -2.801993   -0.639152
 C          0.163236   -1.441981    3.021232
 C         -0.457394    3.569330    1.213383
 H         -0.319202    2.942629   -0.850311
 C         -0.275417    1.825752    2.900682
 H          3.722003    0.349197   -4.280609
 C          0.373830   -2.800180    2.775646
 H          0.672823   -4.340343    1.293327
 H          0.101683   -1.070403    4.040357
 C         -0.438989    3.168869    2.556211
 H         -0.598872    4.616570    0.965171
 H         -0.257714    1.523889    3.944271
 H          0.476422   -3.486787    3.611187
 H         -0.549597    3.914033    3.339028
