       146
S0: Total Energy = -5989.55461552
 C          7.294885   -0.052113   -0.008750
 C          6.504989   -1.215665    0.105260
 C          5.138055   -0.961069    0.100779
 C          4.862217    0.398448   -0.022230
 C          3.446274    0.575757   -0.045888
 C          2.795590   -0.643870    0.053626
 C          1.360552   -0.488223    0.023812
 C          1.006773    0.905617   -0.051777
 C         -0.292310    1.423289   -0.065096
 S          6.262331    1.396307   -0.124752
 C          3.837549   -1.784070    0.212620
 S          2.419425    1.965640   -0.151896
 H          6.963795   -2.194817    0.183500
 C         -7.294912    0.052125    0.008737
 C         -6.505007    1.215668   -0.105312
 C         -5.138073    0.961069   -0.100779
 C         -4.862248   -0.398445    0.022313
 C         -3.446308   -0.575763    0.046026
 C         -2.795615    0.643857   -0.053511
 C         -1.360580    0.488204   -0.023656
 C         -1.006805   -0.905634    0.051954
 C          0.292279   -1.423306    0.065275
 S         -6.262369   -1.396291    0.124851
 C         -3.837553    1.784052   -0.212642
 S         -2.419464   -1.965646    0.152094
 H         -6.963812    2.194817   -0.183601
 C          8.707668   -0.147569   -0.013739
 C          9.736932    0.770415   -0.105541
 C          9.577194    2.233596   -0.251482
 O          8.527110    2.868362   -0.299758
 C         10.937635    2.808460   -0.333929
 C         11.294917    4.141519   -0.480912
 C         12.655091    4.454908   -0.537956
 C         13.613510    3.438358   -0.447913
 C         13.248038    2.095903   -0.299237
 C         11.887421    1.774127   -0.240700
 C         11.171578    0.478959   -0.088694
 C         11.797536   -0.750671    0.048536
 C         13.215764   -0.920727    0.051462
 N         14.363977   -1.120329    0.060667
 C         11.114347   -1.994684    0.208661
 N         10.606853   -3.035656    0.342909
 H          9.009168   -1.185320    0.075501
 H         10.527483    4.906543   -0.548334
 H         12.972692    5.487043   -0.652498
 H         14.668420    3.692264   -0.493989
 H         14.021671    1.343268   -0.234181
 C         -8.707694    0.147587    0.013676
 C         -9.736964   -0.770388    0.105499
 C         -9.577238   -2.233555    0.251599
 O         -8.527160   -2.868327    0.299922
 C        -10.937684   -2.808393    0.334151
 C        -11.294977   -4.141427    0.481333
 C        -12.655152   -4.454790    0.538480
 C        -13.613562   -3.438241    0.448345
 C        -13.248079   -2.095811    0.299463
 C        -11.887460   -1.774062    0.240815
 C        -11.171608   -0.478925    0.088587
 C        -11.797555    0.750681   -0.048892
 C        -13.215781    0.920749   -0.051849
 N        -14.363992    1.120366   -0.061078
 C        -11.114354    1.994655   -0.209280
 N        -10.606839    3.035591   -0.343722
 H         -9.009189    1.185334   -0.075631
 H        -10.527549   -4.906451    0.548830
 H        -12.972761   -5.486905    0.653181
 H        -14.668473   -3.692125    0.494510
 H        -14.021705   -1.343174    0.234344
 C          3.842140   -2.393152    1.634762
 C          3.029389   -1.896565    2.660076
 C          3.126079   -2.387834    3.964596
 C          4.038670   -3.392017    4.300276
 C          4.867189   -3.876787    3.278306
 C          4.777675   -3.384648    1.979003
 H          2.311955   -1.110250    2.454214
 H          2.478158   -1.972884    4.733475
 H          5.603416   -4.645290    3.503040
 H          5.451137   -3.782068    1.226567
 C          3.784300   -2.792537   -0.961954
 C          3.915231   -2.293944   -2.270219
 C          3.942810   -3.145132   -3.368559
 C          3.850884   -4.537372   -3.210534
 C          3.707084   -5.028131   -1.911658
 C          3.664917   -4.173717   -0.804212
 H          4.003100   -1.222745   -2.431494
 H          4.046611   -2.723207   -4.365979
 H          3.623554   -6.100667   -1.750771
 H          3.524798   -4.603303    0.179545
 C         -3.784359    2.792645    0.961824
 C         -3.915322    2.294183    2.270138
 C         -3.942977    3.145484    3.368387
 C         -3.851077    4.537711    3.210218
 C         -3.707251    5.028339    1.911297
 C         -3.665011    4.173811    0.803941
 H         -4.003172    1.222998    2.431516
 H         -4.046821    2.723664    4.365846
 H         -3.623763    6.100862    1.750302
 H         -3.524883    4.603298   -0.179858
 C         -3.842037    2.392992   -1.634851
 C         -3.029143    1.896371   -2.660035
 C         -3.125720    2.387524   -3.964606
 C         -4.038336    3.391626   -4.300471
 C         -4.866999    3.876425   -3.278636
 C         -4.777595    3.384398   -1.979281
 H         -2.311692    1.110108   -2.454034
 H         -2.477691    1.972546   -4.733378
 H         -5.603252    4.644860   -3.503512
 H         -5.451165    3.781845   -1.226956
 C          4.125460   -3.944580    5.703112
 H          3.675161   -3.261793    6.430582
 H          3.599828   -4.905240    5.784948
 C          3.909804   -5.459463   -4.405536
 H          3.756339   -6.502999   -4.113100
 H          3.144865   -5.201539   -5.148082
 C         -3.909964    5.459915    4.405135
 H         -3.144194    5.202833    5.147123
 H         -3.757706    6.503553    4.112431
 C         -4.124981    3.944074   -5.703361
 H         -3.598962    4.904513   -5.785327
 H         -3.674989    3.261034   -6.430784
 H         -5.164700    4.121088   -6.000237
 H         -4.880897    5.394541    4.912309
 H          4.881201   -5.394953   -4.911940
 H          5.165236   -4.121209    6.000025
 C          0.436752   -2.899464    0.069125
 C          0.575223   -3.759213    1.129026
 S          0.181365   -3.809305   -1.414221
 C          0.497387   -5.135375    0.759065
 H          0.719269   -3.418042    2.147185
 C          0.283859   -5.336993   -0.579720
 H          0.591576   -5.952578    1.467298
 C         -0.436783    2.899449   -0.068900
 C         -0.575144    3.759230   -1.128791
 S         -0.181497    3.809244    1.414490
 C         -0.497273    5.135380   -0.758792
 H         -0.719126    3.418085   -2.146968
 C         -0.283824    5.336954    0.580012
 H         -0.591371    5.952605   -1.467011
 C          0.163909   -6.637032   -1.318110
 H          0.230693   -7.470111   -0.611544
 H         -0.791752   -6.720279   -1.849023
 H          0.963372   -6.756811   -2.059076
 C         -0.163887    6.636971    1.318444
 H          0.791674    6.720113    1.849552
 H         -0.230443    7.470068    0.611878
 H         -0.963490    6.756818    2.059248
       146
T1: Total Energy = -5989.51219468
 C         -7.277931   -0.042074    0.002263
 C         -6.472536   -1.209674   -0.111414
 C         -5.118207   -0.948184   -0.116954
 C         -4.837666    0.427311    0.004486
 C         -3.450756    0.606545    0.029287
 C         -2.773505   -0.638029   -0.070402
 C         -1.369394   -0.483683   -0.025831
 C         -1.002284    0.916912    0.058653
 C          0.284359    1.430123    0.069373
 S         -6.258180    1.420277    0.110109
 C         -3.819812   -1.774288   -0.233038
 S         -2.417800    1.985042    0.150931
 H         -6.928205   -2.190380   -0.182569
 C          7.277947    0.042095   -0.002316
 C          6.472542    1.209676    0.111486
 C          5.118216    0.948168    0.117071
 C          4.837690   -0.427324   -0.004454
 C          3.450781   -0.606576   -0.029242
 C          2.773521    0.637989    0.070488
 C          1.369415    0.483646    0.025837
 C          1.002308   -0.916947   -0.058656
 C         -0.284335   -1.430160   -0.069360
 S          6.258212   -1.420264   -0.110206
 C          3.819810    1.774243    0.233247
 S          2.417828   -1.985068   -0.150986
 H          6.928204    2.190384    0.182663
 C         -8.683337   -0.148477    0.012892
 C         -9.724065    0.770805    0.106548
 C         -9.572626    2.237717    0.243229
 O         -8.525609    2.878398    0.285639
 C        -10.935381    2.806819    0.323330
 C        -11.300867    4.137897    0.460431
 C        -12.664016    4.443479    0.516036
 C        -13.613776    3.419546    0.433948
 C        -13.238690    2.077154    0.295167
 C        -11.876992    1.764192    0.238547
 C        -11.148733    0.473344    0.096483
 C        -11.769394   -0.767687   -0.026276
 C        -13.184975   -0.945450   -0.022011
 N        -14.332856   -1.151427   -0.024710
 C        -11.082646   -2.009256   -0.175095
 N        -10.574759   -3.052068   -0.299912
 H         -8.981808   -1.186848   -0.071715
 H        -10.538430    4.908551    0.521556
 H        -12.988466    5.474290    0.623017
 H        -14.670745    3.665592    0.478335
 H        -14.007289    1.318872    0.235873
 C          8.683350    0.148517   -0.013021
 C          9.724082   -0.770742   -0.106869
 C          9.572647   -2.237644   -0.243664
 O          8.525635   -2.878341   -0.285954
 C         10.935403   -2.806731   -0.323855
 C         11.300893   -4.137802   -0.461024
 C         12.664041   -4.443369   -0.516726
 C         13.613797   -3.419430   -0.434656
 C         13.238707   -2.077046   -0.295804
 C         11.877009   -1.764098   -0.239097
 C         11.148748   -0.473263   -0.096933
 C         11.769407    0.767770    0.025820
 C         13.184985    0.945547    0.021424
 N         14.332865    1.151535    0.024009
 C         11.082663    2.009322    0.174792
 N         10.574783    3.052123    0.299736
 H          8.981814    1.186882    0.071687
 H         10.538458   -4.908459   -0.522134
 H         12.988494   -5.474172   -0.623766
 H         14.670766   -3.665465   -0.479110
 H         14.007303   -1.318760   -0.236521
 C         -3.824280   -2.384240   -1.654779
 C         -3.011991   -1.888972   -2.680930
 C         -3.107560   -2.383567   -3.984171
 C         -4.020012   -3.388677   -4.317763
 C         -4.849616   -3.870308   -3.295196
 C         -4.760721   -3.375471   -1.996964
 H         -2.295966   -1.100692   -2.477338
 H         -2.459959   -1.969780   -4.753856
 H         -5.586228   -4.638751   -3.518453
 H         -5.435830   -3.770073   -1.244752
 C         -3.772060   -2.778522    0.944064
 C         -3.904912   -2.273701    2.250169
 C         -3.939267   -3.120648    3.351750
 C         -3.854814   -4.513611    3.198848
 C         -3.709928   -5.010546    1.901756
 C         -3.659510   -4.161280    0.791531
 H         -3.990395   -1.201899    2.408462
 H         -4.044154   -2.694516    4.347142
 H         -3.632577   -6.084136    1.745521
 H         -3.519429   -4.595120   -0.190271
 C          3.772048    2.778625   -0.943728
 C          3.904870    2.273959   -2.249897
 C          3.939255    3.121040   -3.351374
 C          3.854864    4.513988   -3.198300
 C          3.710001    5.010769   -1.901146
 C          3.659554    4.161368   -0.791024
 H          3.990306    1.202174   -2.408324
 H          4.044114    2.695024   -4.346819
 H          3.632709    6.084344   -1.744780
 H          3.519485    4.595096    0.190831
 C          3.824235    2.384016    1.655063
 C          3.011872    1.888657    2.681111
 C          3.107382    2.383102    3.984413
 C          4.019837    3.388155    4.318169
 C          4.849511    3.869880    3.295702
 C          4.760680    3.375186    1.997411
 H          2.295841    1.100417    2.477390
 H          2.459728    1.969242    4.754015
 H          5.586128    4.638281    3.519086
 H          5.435852    3.769850    1.245289
 C         -4.106770   -3.944234   -5.719270
 H         -3.650850   -3.266037   -6.447450
 H         -3.586643   -4.908184   -5.796968
 C         -3.925665   -5.431243    4.396354
 H         -3.751386   -6.473736    4.112240
 H         -3.181119   -5.158436    5.153921
 C          3.925755    5.431765   -4.395691
 H          3.181225    5.159060   -5.153311
 H          3.751485    6.474226   -4.111454
 C          4.106521    3.943558    5.719741
 H          3.586308    4.907454    5.797539
 H          3.650646    3.265239    6.447835
 H          5.146623    4.114982    6.018386
 H          4.909004    5.378946   -4.880152
 H         -4.908901   -5.378378    4.880833
 H         -5.146892   -4.115602   -6.017877
 C         -0.435915   -2.904507   -0.065349
 C         -0.578631   -3.769078   -1.121038
 S         -0.184544   -3.807270    1.423371
 C         -0.505149   -5.143175   -0.743616
 H         -0.721405   -3.432937   -2.141066
 C         -0.292710   -5.338467    0.596467
 H         -0.601179   -5.963749   -1.447571
 C          0.435945    2.904471    0.065402
 C          0.578789    3.768992    1.121115
 S          0.184355    3.807308   -1.423238
 C          0.505380    5.143108    0.743753
 H          0.721696    3.432805    2.141109
 C          0.292802    5.338466   -0.596298
 H          0.601579    5.963648    1.447724
 C         -0.177108   -6.635027    1.341555
 H         -0.246676   -7.471369    0.639247
 H          0.778251   -6.718403    1.872825
 H         -0.977062   -6.748006    2.082963
 C          0.177173    6.635064   -1.341316
 H         -0.778322    6.718568   -1.872324
 H          0.247027    7.471373   -0.638998
 H          0.976931    6.747978   -2.082942
       146
S1: Total Energy = -5989.49349288
 C         -7.283150   -0.047109    0.005874
 C         -6.485528   -1.210787   -0.102998
 C         -5.123158   -0.948507   -0.107017
 C         -4.846246    0.419852    0.007857
 C         -3.447689    0.598068    0.027894
 C         -2.778648   -0.639297   -0.070584
 C         -1.367353   -0.484843   -0.032257
 C         -1.002879    0.914047    0.049720
 C          0.285770    1.429138    0.069159
 S         -6.262061    1.413133    0.110680
 C         -3.826182   -1.775630   -0.219104
 S         -2.420134    1.978161    0.141684
 H         -6.940027   -2.192072   -0.173378
 C          7.283147    0.047099   -0.005924
 C          6.485530    1.210778    0.102970
 C          5.123163    0.948483    0.107230
 C          4.846245   -0.419887   -0.007501
 C          3.447687   -0.598107   -0.027401
 C          2.778651    0.639266    0.071042
 C          1.367353    0.484813    0.032774
 C          1.002876   -0.914079   -0.049167
 C         -0.285772   -1.429168   -0.068611
 S          6.262057   -1.413167   -0.110396
 C          3.826198    1.775606    0.219429
 S          2.420125   -1.978201   -0.141111
 H          6.940026    2.192078    0.173146
 C         -8.696253   -0.150296    0.013992
 C         -9.731219    0.767712    0.105045
 C         -9.575439    2.235252    0.244245
 O         -8.525762    2.871602    0.288170
 C        -10.935850    2.807277    0.324791
 C        -11.297637    4.138781    0.465338
 C        -12.660160    4.448707    0.521329
 C        -13.612699    3.427062    0.436124
 C        -13.242274    2.084081    0.293800
 C        -11.880641    1.765591    0.236540
 C        -11.160268    0.475236    0.091837
 C        -11.783241   -0.766149   -0.037051
 C        -13.198372   -0.941272   -0.037203
 N        -14.347393   -1.143683   -0.043628
 C        -11.097940   -2.007080   -0.188909
 N        -10.588944   -3.049718   -0.316211
 H         -8.994780   -1.188791   -0.070825
 H        -10.532830    4.906940    0.528940
 H        -12.981753    5.480115    0.631086
 H        -14.668997    3.676282    0.480955
 H        -14.013012    1.328086    0.232383
 C          8.696245    0.150316   -0.014437
 C          9.731207   -0.767687   -0.105580
 C          9.575422   -2.235285   -0.244156
 O          8.525746   -2.871669   -0.287601
 C         10.935825   -2.807321   -0.324758
 C         11.297606   -4.138883   -0.464782
 C         12.660123   -4.448811   -0.520911
 C         13.612662   -3.427113   -0.436357
 C         13.242243   -2.084074   -0.294566
 C         11.880616   -1.765579   -0.237175
 C         11.160251   -0.475170   -0.092924
 C         11.783226    0.766305    0.035089
 C         13.198352    0.941464    0.034814
 N         14.347367    1.143920    0.040872
 C         11.097930    2.007311    0.186351
 N         10.588932    3.050013    0.313112
 H          8.994769    1.188835    0.070087
 H         10.532800   -4.907084   -0.527880
 H         12.981710   -5.480264   -0.630265
 H         14.668955   -3.676335   -0.481285
 H         14.012982   -1.328039   -0.233647
 C         -3.839519   -2.399636   -1.633932
 C         -3.046317   -1.901821   -2.673930
 C         -3.152835   -2.406625   -3.972249
 C         -4.057640   -3.424960   -4.286938
 C         -4.868285   -3.909007   -3.250525
 C         -4.768631   -3.404106   -1.956796
 H         -2.336788   -1.104000   -2.484605
 H         -2.520109   -1.990937   -4.753196
 H         -5.598690   -4.687423   -3.459047
 H         -5.429432   -3.800967   -1.193115
 C         -3.772411   -2.765027    0.969978
 C         -3.909891   -2.244986    2.270132
 C         -3.936027   -3.078275    3.382142
 C         -3.838764   -4.472239    3.246597
 C         -3.689298   -4.984211    1.955486
 C         -3.646842   -4.148717    0.834797
 H         -4.005362   -1.172209    2.414672
 H         -4.044716   -2.640789    4.372141
 H         -3.602210   -6.058922    1.812934
 H         -3.502894   -4.593359   -0.141552
 C          3.772309    2.764972   -0.969671
 C          3.909718    2.244908   -2.269823
 C          3.935768    3.078176   -3.381851
 C          3.838483    4.472140   -3.246328
 C          3.689092    4.984136   -1.955217
 C          3.646724    4.148664   -0.834509
 H          4.005211    1.172130   -2.414346
 H          4.044408    2.640673   -4.371848
 H          3.601997    6.058849   -1.812681
 H          3.502837    4.593323    0.141841
 C          3.839676    2.399645    1.634242
 C          3.046585    1.901838    2.674331
 C          3.153224    2.406667    3.972628
 C          4.058044    3.425027    4.287205
 C          4.868574    3.909067    3.250703
 C          4.768801    3.404138    1.956992
 H          2.337050    1.104002    2.485088
 H          2.520585    1.990984    4.753648
 H          5.598984    4.687503    3.459135
 H          5.429520    3.800996    1.193237
 C         -4.155277   -3.991551   -5.683260
 H         -3.723336   -3.309905   -6.422753
 H         -3.618194   -4.946032   -5.762683
 C         -3.901504   -5.375509    4.455151
 H         -3.708595   -6.418541    4.185581
 H         -3.166191   -5.080544    5.213372
 C          3.901112    5.375385   -4.454906
 H          3.165621    5.080499   -5.212987
 H          3.708378    6.418444   -4.185316
 C          4.155804    3.991649    5.683506
 H          3.618636    4.946077    5.762984
 H          3.724024    3.309971    6.423064
 H          5.196928    4.184616    5.964718
 H          4.887945    5.332221   -4.933049
 H         -4.888433   -5.332474    4.933111
 H         -5.196385   -4.184412   -5.964609
 C         -0.437454   -2.903091   -0.066749
 C         -0.609468   -3.764076   -1.121091
 S         -0.152792   -3.811521    1.413175
 C         -0.530045   -5.139248   -0.749625
 H         -0.775411   -3.424873   -2.136443
 C         -0.286363   -5.339445    0.584636
 H         -0.644537   -5.957344   -1.453659
 C          0.437456    2.903059    0.067327
 C          0.609639    3.764014    1.121667
 S          0.152599    3.811539   -1.412534
 C          0.530189    5.139197    0.750250
 H          0.775722    3.424783    2.136986
 C          0.286310    5.339436   -0.583969
 H          0.644800    5.957271    1.454290
 C         -0.157646   -6.638701    1.322868
 H         -0.246049   -7.472495    0.619719
 H          0.809511   -6.726466    1.831518
 H         -0.940449   -6.751720    2.082332
 C          0.157488    6.638716   -1.322140
 H         -0.809772    6.726529   -1.830587
 H          0.246064    7.472488   -0.618987
 H          0.940136    6.751730   -2.081764
