       132
S0: Total Energy = -5084.41244731
 C          7.279279    0.366315    0.012179
 C          6.433044    1.496078    0.048827
 C          5.081357    1.178720    0.000542
 C          4.870164   -0.197728   -0.073993
 C          3.464916   -0.444705   -0.098494
 C          2.757320    0.745237   -0.064318
 C          1.330313    0.528529   -0.034389
 C          1.032631   -0.879317   -0.040272
 C         -0.242911   -1.437353   -0.000181
 S          6.316263   -1.131405   -0.089070
 C          3.743675    1.944231   -0.007259
 S          2.495662   -1.881626   -0.105893
 H          6.843421    2.497630    0.110844
 C         -7.279262   -0.366305   -0.012210
 C         -6.433027   -1.496068   -0.048838
 C         -5.081341   -1.178713   -0.000487
 C         -4.870151    0.197735    0.074059
 C         -3.464905    0.444717    0.098603
 C         -2.757307   -0.745223    0.064436
 C         -1.330299   -0.528516    0.034528
 C         -1.032617    0.879332    0.040412
 C          0.242924    1.437366    0.000328
 S         -6.316249    1.131414    0.089058
 C         -3.743655   -1.944220    0.007358
 S         -2.495654    1.881639    0.106030
 H         -6.843405   -2.497618   -0.110873
 C          8.684088    0.524705    0.052626
 C          9.756002   -0.349940    0.032190
 C          9.663475   -1.821569   -0.036409
 O          8.648353   -2.509858   -0.090444
 C         11.052093   -2.339416   -0.026322
 C         11.459632   -3.663306   -0.074054
 C         12.832103   -3.890747   -0.050367
 C         13.760743   -2.851684    0.017848
 C         13.327052   -1.525444    0.064870
 C         11.951333   -1.259373    0.042444
 C         11.175585    0.006650    0.078260
 C         11.742655    1.270980    0.140842
 C         13.151281    1.502632    0.178762
 N         14.290087    1.748640    0.211656
 C         11.002651    2.491798    0.172981
 N         10.448383    3.517112    0.201229
 H          8.937693    1.577266    0.112097
 H         10.748533   -4.480562   -0.127024
 H         14.818603   -3.090935    0.033548
 H         14.066729   -0.738690    0.117569
 C         -8.684070   -0.524699   -0.052692
 C         -9.755989    0.349942   -0.032284
 C         -9.663474    1.821573    0.036284
 O         -8.648358    2.509870    0.090357
 C        -11.052094    2.339413    0.026098
 C        -11.459641    3.663303    0.073755
 C        -12.832112    3.890738    0.049975
 C        -13.760743    2.851668   -0.018258
 C        -13.327044    1.525428   -0.065201
 C        -11.951324    1.259363   -0.042680
 C        -11.175569   -0.006656   -0.078397
 C        -11.742632   -1.270993   -0.140925
 C        -13.151255   -1.502650   -0.178911
 N        -14.290059   -1.748661   -0.211859
 C        -11.002622   -2.491811   -0.172934
 N        -10.448349   -3.517126   -0.201074
 H         -8.937670   -1.577261   -0.112176
 H        -10.748549    4.480564    0.126738
 H        -14.818603    3.090914   -0.034033
 H        -14.066714    0.738668   -0.117918
 C          3.738667    2.812185   -1.284468
 C          2.986218    2.469193   -2.413559
 C          3.071144    3.215288   -3.591963
 C          3.912132    4.327066   -3.691841
 C          4.677681    4.661987   -2.564962
 C          4.597305    3.920784   -1.389651
 H          2.325614    1.609057   -2.386317
 H          2.470156    2.918708   -4.448409
 H          5.352998    5.513464   -2.608609
 H          5.211636    4.214587   -0.544010
 C          3.572278    2.716624    1.328100
 C          3.756000    2.019088    2.534242
 C          3.604932    2.649798    3.764163
 C          3.265738    4.009386    3.847606
 C          3.078042    4.700033    2.648155
 C          3.227239    4.068133    1.409067
 H          4.019100    0.965174    2.512610
 H          3.753799    2.076579    4.676617
 H          2.808879    5.753524    2.672539
 H          3.064465    4.647879    0.508016
 C         -3.572241   -2.716636   -1.327981
 C         -3.755948   -2.019112   -2.534130
 C         -3.604906   -2.649843   -3.764046
 C         -3.265764   -4.009443   -3.847470
 C         -3.078076   -4.700079   -2.648009
 C         -3.227250   -4.068161   -1.408931
 H         -4.019008   -0.965187   -2.512509
 H         -3.753748   -2.076630   -4.676507
 H         -2.808932   -5.753575   -2.672384
 H         -3.064485   -4.647897   -0.507872
 C         -3.738674   -2.812151    1.284588
 C         -2.986221   -2.469171    2.413681
 C         -3.071171   -3.215255    3.592088
 C         -3.912186   -4.327014    3.691971
 C         -4.677741   -4.661921    2.565094
 C         -4.597341   -3.920727    1.389779
 H         -2.325600   -1.609049    2.386441
 H         -2.470184   -2.918679    4.448537
 H         -5.353085   -5.513377    2.608748
 H         -5.211682   -4.214517    0.544140
 C          3.987155    5.149804   -4.956005
 H          3.566691    4.609687   -5.810011
 H          3.427911    6.088882   -4.851876
 C          3.125199    4.695022    5.185883
 H          2.667404    5.683666    5.082391
 H          2.508606    4.105782    5.874536
 C         -3.125335   -4.695136   -5.185730
 H         -2.509549   -4.105503   -5.874762
 H         -2.666733   -5.683416   -5.082334
 C         -3.987198   -5.149754    4.956135
 H         -3.427406   -6.088530    4.852223
 H         -3.567304   -4.609389    5.810267
 H         -5.021739   -5.418111    5.197797
 H         -4.102725   -4.831967   -5.666336
 H          4.102454    4.831017    5.666995
 H          5.021761    5.417612   -5.198010
 C          0.398532    2.936353    0.012897
 H         -0.423826    3.416749   -0.529213
 H          0.395670    3.329204    1.036509
 H          1.323626    3.253612   -0.463821
 C         -0.398494   -2.936343   -0.012712
 H         -1.323637   -3.253606    0.463901
 H         -0.395492   -3.329236   -1.036309
 H          0.423811   -3.416695    0.529520
 F         13.284858   -5.155823   -0.094305
 F        -13.284875    5.155813    0.093836
       132
T1: Total Energy = -5084.37053939
 C         -7.265417   -0.353662    0.007086
 C         -6.405150   -1.486699    0.041502
 C         -5.064971   -1.164099   -0.009928
 C         -4.849345    0.226750   -0.078921
 C         -3.471617    0.472663   -0.092531
 C         -2.736390   -0.740683   -0.054907
 C         -1.340813   -0.521402   -0.026384
 C         -1.029659    0.893609   -0.042292
 C          0.235737    1.442722   -0.012309
 S         -6.315198    1.155959   -0.089811
 C         -3.730642   -1.936243   -0.016450
 S         -2.498780    1.899154   -0.110763
 H         -6.812586   -2.489036    0.103085
 C          7.265425    0.353661   -0.007052
 C          6.405156    1.486695   -0.041500
 C          5.064975    1.164088    0.009829
 C          4.849349   -0.226762    0.078793
 C          3.471621   -0.472677    0.092324
 C          2.736393    0.740667    0.054682
 C          1.340819    0.521383    0.026141
 C          1.029667   -0.893628    0.042041
 C         -0.235730   -1.442742    0.012061
 S          6.315207   -1.155963    0.089818
 C          3.730643    1.936229    0.016246
 S          2.498787   -1.899171    0.110535
 H          6.812591    2.489035   -0.103056
 C         -8.663729   -0.521021    0.046566
 C         -9.746032    0.355317    0.029901
 C         -9.661505    1.829124   -0.032869
 O         -8.649772    2.523270   -0.083672
 C        -11.052227    2.341333   -0.021638
 C        -11.467238    3.662375   -0.064786
 C        -12.841966    3.882001   -0.041168
 C        -13.762649    2.837431    0.022454
 C        -13.319987    1.512126    0.064985
 C        -11.943815    1.254806    0.042688
 C        -11.156107   -0.005964    0.074458
 C        -11.718141   -1.279111    0.133964
 C        -13.124125   -1.517190    0.172169
 N        -14.262416   -1.768876    0.205293
 C        -10.975371   -2.496614    0.162323
 N        -10.421379   -3.522979    0.187598
 H         -8.914957   -1.573751    0.101699
 H        -10.761114    4.484203   -0.114334
 H        -14.822271    3.069064    0.038289
 H        -14.054875    0.720645    0.114140
 C          8.663739    0.521025   -0.046458
 C          9.746044   -0.355310   -0.029729
 C          9.661516   -1.829122    0.032952
 O          8.649782   -2.523271    0.083709
 C         11.052244   -2.341321    0.021938
 C         11.467257   -3.662359    0.065168
 C         12.841989   -3.881977    0.041733
 C         13.762674   -2.837402   -0.021789
 C         13.320009   -1.512101   -0.064398
 C         11.943833   -1.254789   -0.042285
 C         11.156122    0.005976   -0.074150
 C         11.718157    1.279127   -0.133590
 C         13.124144    1.517212   -0.171642
 N         14.262438    1.768901   -0.204633
 C         10.975385    2.496627   -0.162030
 N         10.421395    3.522992   -0.187352
 H          8.914967    1.573755   -0.101570
 H         10.761132   -4.484191    0.114633
 H         14.822300   -3.069028   -0.037481
 H         14.054899   -0.720616   -0.113462
 C         -3.723697   -2.790703   -1.303216
 C         -2.981607   -2.428395   -2.433331
 C         -3.067581   -3.161533   -3.619577
 C         -3.901202   -4.278257   -3.727349
 C         -4.658962   -4.630301   -2.600556
 C         -4.577082   -3.902473   -1.417032
 H         -2.329925   -1.561570   -2.401875
 H         -2.474815   -2.849818   -4.476311
 H         -5.329908   -5.484754   -2.650554
 H         -5.187441   -4.208568   -0.573152
 C         -3.581442   -2.720296    1.313242
 C         -3.784294   -2.031929    2.521598
 C         -3.656521   -2.673671    3.748942
 C         -3.324937   -4.034915    3.826563
 C         -3.117352   -4.716624    2.624248
 C         -3.241552   -4.074252    1.388625
 H         -4.044895   -0.977309    2.505550
 H         -3.819221   -2.107683    4.663378
 H         -2.852060   -5.771117    2.644881
 H         -3.061999   -4.645520    0.485406
 C          3.581512    2.720230   -1.313484
 C          3.784471    2.031830   -2.521802
 C          3.656760    2.673528   -3.749176
 C          3.325135    4.034757   -3.826865
 C          3.117445    4.716500   -2.624586
 C          3.241583    4.074173   -1.388935
 H          4.045106    0.977219   -2.505703
 H          3.819540    2.107515   -4.663583
 H          2.852119    5.770983   -2.645271
 H          3.061954    4.645465   -0.485746
 C          3.723609    2.790739    1.302975
 C          2.981526    2.428411    2.433088
 C          3.067412    3.161605    3.619307
 C          3.900930    4.278408    3.727049
 C          4.658673    4.630482    2.600253
 C          4.576881    3.902599    1.416757
 H          2.329918    1.561530    2.401649
 H          2.474656    2.849873    4.476042
 H          5.329534    5.485003    2.650226
 H          5.187218    4.208723    0.572871
 C         -3.977113   -5.087094   -5.000185
 H         -3.581352   -4.527748   -5.853606
 H         -3.395466   -6.014458   -4.915491
 C         -3.217297   -4.735246    5.160017
 H         -2.687697   -5.688745    5.069618
 H         -2.686720   -4.118655    5.894233
 C          3.217571    4.735046   -5.160348
 H          2.687207    4.118353   -5.894631
 H          2.687800    5.688459   -5.070043
 C          3.976752    5.087301    4.999856
 H          3.395194    6.014709    4.915047
 H          3.580844    4.528027    5.853256
 H          5.008621    5.375159    5.229606
 H          4.210870    4.947827   -5.576745
 H         -4.210570   -4.947865    5.576558
 H         -5.008985   -5.375027   -5.229824
 C         -0.424186   -2.935399    0.043094
 H          0.469164   -3.457049   -0.313276
 H         -0.633491   -3.285824    1.059730
 H         -1.254260   -3.247802   -0.591231
 C          0.424204    2.935378   -0.043346
 H          1.254246    3.247779    0.591024
 H          0.633571    3.285790   -1.059974
 H         -0.469161    3.457040    0.312967
 F        -13.301616    5.146079   -0.080802
 F         13.301642   -5.146052    0.081445
       132
S1: Total Energy = -5084.35246823
 C         -7.270459   -0.357469    0.008474
 C         -6.417750   -1.486996    0.039799
 C         -5.069794   -1.162946   -0.005851
 C         -4.857363    0.220556   -0.068245
 C         -3.467752    0.465941   -0.080709
 C         -2.741700   -0.740562   -0.050027
 C         -1.338677   -0.521621   -0.023723
 C         -1.030203    0.891152   -0.033943
 C          0.237912    1.441452   -0.006614
 S         -6.318264    1.150239   -0.079094
 C         -3.736521   -1.935249   -0.012774
 S         -2.499732    1.893407   -0.092305
 H         -6.824339   -2.490039    0.094827
 C          7.270473    0.357477   -0.008444
 C          6.417759    1.487002   -0.039734
 C          5.069807    1.162948    0.005997
 C          4.857383   -0.220553    0.068417
 C          3.467774   -0.465943    0.080913
 C          2.741717    0.740557    0.050237
 C          1.338697    0.521612    0.023952
 C          1.030224   -0.891160    0.034178
 C         -0.237890   -1.441461    0.006842
 S          6.318289   -1.150230    0.079232
 C          3.736530    1.935246    0.012944
 S          2.499756   -1.893412    0.092545
 H          6.824342    2.490044   -0.094825
 C         -8.676086   -0.522356    0.044378
 C         -9.752910    0.352922    0.029903
 C         -9.663866    1.828433   -0.029171
 O         -8.649123    2.518221   -0.076104
 C        -11.052267    2.343880   -0.020477
 C        -11.463432    3.665966   -0.061885
 C        -12.837883    3.889837   -0.041467
 C        -13.761479    2.847333    0.017525
 C        -13.323449    1.520526    0.058496
 C        -11.947128    1.257859    0.039234
 C        -11.167050   -0.003494    0.070971
 C        -11.731901   -1.277780    0.128464
 C        -13.137629   -1.513319    0.161207
 N        -14.277281   -1.761775    0.189575
 C        -10.991114   -2.495271    0.160368
 N        -10.436691   -3.521986    0.188613
 H         -8.927658   -1.575457    0.093714
 H        -10.754703    4.485809   -0.107696
 H        -14.820507    3.082188    0.031013
 H        -14.060664    0.730970    0.104077
 C          8.676095    0.522363   -0.044496
 C          9.752917   -0.352918   -0.030082
 C          9.663871   -1.828423    0.029121
 O          8.649128   -2.518200    0.076248
 C         11.052269   -2.343877    0.020382
 C         11.463432   -3.665960    0.061915
 C         12.837880   -3.889840    0.041406
 C         13.761476   -2.847347   -0.017789
 C         13.323448   -1.520543   -0.058880
 C         11.947130   -1.257866   -0.039527
 C         11.167055    0.003487   -0.071340
 C         11.731906    1.277765   -0.129043
 C         13.137633    1.513294   -0.161930
 N         14.277282    1.761750   -0.190416
 C         10.991121    2.495255   -0.161044
 N         10.436707    3.521972   -0.189372
 H          8.927664    1.575461   -0.093910
 H         10.754703   -4.485794    0.107878
 H         14.820502   -3.082207   -0.031338
 H         14.060663   -0.730996   -0.104611
 C         -3.730748   -2.789463   -1.299204
 C         -2.993915   -2.423927   -2.431881
 C         -3.082390   -3.156281   -3.618316
 C         -3.913190   -4.275493   -3.723743
 C         -4.665347   -4.630911   -2.594290
 C         -4.581027   -3.903946   -1.410374
 H         -2.344749   -1.555098   -2.402219
 H         -2.493868   -2.842234   -4.477112
 H         -5.333856   -5.487349   -2.642426
 H         -5.186776   -4.212747   -0.564150
 C         -3.586662   -2.718792    1.317121
 C         -3.797252   -2.032525    2.525559
 C         -3.668912   -2.674493    3.752632
 C         -3.329167   -4.033775    3.830059
 C         -3.113872   -4.713351    2.627697
 C         -3.238385   -4.070807    1.392313
 H         -4.064791   -0.979722    2.509284
 H         -3.837911   -2.110415    4.667076
 H         -2.842555   -5.766291    2.648329
 H         -3.053641   -4.640324    0.489028
 C          3.586633    2.718775   -1.316954
 C          3.797192    2.032498   -2.525390
 C          3.668812    2.674455   -3.752466
 C          3.329059    4.033733   -3.829896
 C          3.113783    4.713318   -2.627533
 C          3.238335    4.070786   -1.392149
 H          4.064734    0.979696   -2.509113
 H          3.837787    2.110370   -4.666910
 H          2.842446    5.766252   -2.648167
 H          3.053601    4.640306   -0.488862
 C          3.730775    2.789476    1.299363
 C          2.993935    2.423971    2.432045
 C          3.082419    3.156345    3.618468
 C          3.913230    4.275551    3.723874
 C          4.665388    4.630942    2.594414
 C          4.581060    3.903956    1.410511
 H          2.344759    1.555149    2.402400
 H          2.493894    2.842319    4.477270
 H          5.333904    5.487376    2.642533
 H          5.186809    4.212738    0.564280
 C         -3.991549   -5.083451   -4.996940
 H         -3.602804   -4.521404   -5.851804
 H         -3.404948   -6.008032   -4.916021
 C         -3.221683   -4.734764    5.163065
 H         -2.681057   -5.682226    5.074580
 H         -2.702625   -4.113292    5.901342
 C          3.221559    4.734724   -5.162900
 H          2.702918    4.113064   -5.901308
 H          2.680525    5.681962   -5.074493
 C          3.991592    5.083532    4.997056
 H          3.404930    6.008075    4.916148
 H          3.602918    4.521474    5.851945
 H          5.023175    5.376352    5.221652
 H          4.214984    4.959426   -5.572702
 H         -4.215113   -4.959031    5.573090
 H         -5.023140   -5.376204   -5.221584
 C         -0.426095   -2.933734    0.033701
 H          0.468202   -3.455380   -0.319848
 H         -0.639603   -3.285105    1.049193
 H         -1.254704   -3.244182   -0.603687
 C          0.426127    2.933724   -0.033481
 H          1.254718    3.244173    0.603931
 H          0.639672    3.285081   -1.048970
 H         -0.468177    3.455381    0.320032
 F        -13.293871    5.155564   -0.079627
 F         13.293865   -5.155564    0.079672
