       126
S0: Total Energy = -5204.24199764
 C          7.249825   -0.524982   -0.046609
 C          6.356439   -1.618880   -0.064063
 C          5.019371   -1.244646   -0.049573
 C          4.864409    0.145843   -0.014663
 C          3.468387    0.453101    0.005951
 C          2.735612   -0.719224    0.010145
 C          1.325374   -0.490512    0.000664
 C          1.033404    0.916007   -0.002061
 C         -0.259947    1.410192   -0.004060
 S          6.350187    1.014346   -0.001877
 C          3.654274   -1.952776   -0.028090
 S          2.504637    1.906405   -0.001882
 H          6.721654   -2.639804   -0.087121
 C         -7.249825    0.524982    0.046610
 C         -6.356439    1.618879    0.064063
 C         -5.019371    1.244645    0.049573
 C         -4.864410   -0.145844    0.014663
 C         -3.468388   -0.453101   -0.005950
 C         -2.735613    0.719223   -0.010145
 C         -1.325374    0.490511   -0.000664
 C         -1.033404   -0.916008    0.002062
 C          0.259946   -1.410193    0.004060
 S         -6.350187   -1.014346    0.001878
 C         -3.654274    1.952775    0.028089
 S         -2.504638   -1.906406    0.001883
 H         -6.721654    2.639803    0.087121
 C          8.646887   -0.743243   -0.063772
 C          9.754811    0.085716   -0.051777
 C          9.725406    1.562121   -0.011004
 O          8.740473    2.294294    0.012435
 C         11.133188    2.018008   -0.002928
 C         11.600081    3.325554    0.032644
 C         12.975056    3.507074    0.032684
 C         13.840348    2.405319   -0.002288
 C         13.371501    1.098084   -0.038160
 C         11.985508    0.900825   -0.038082
 C         11.156436   -0.332973   -0.071561
 C         11.673463   -1.618531   -0.115221
 C         13.072525   -1.904687   -0.125687
 N         14.202478   -2.189843   -0.135475
 C         10.884463   -2.808071   -0.156404
 N         10.287818   -3.808898   -0.192115
 H          8.856626   -1.806791   -0.090981
 H         10.924282    4.173563    0.059416
 H         14.097060    0.296851   -0.063948
 C         -8.646887    0.743243    0.063774
 C         -9.754812   -0.085716    0.051780
 C         -9.725407   -1.562121    0.011006
 O         -8.740474   -2.294294   -0.012430
 C        -11.133189   -2.018008    0.002929
 C        -11.600083   -3.325553   -0.032643
 C        -12.975057   -3.507072   -0.032684
 C        -13.840350   -2.405318    0.002287
 C        -13.371502   -1.098082    0.038159
 C        -11.985509   -0.900824    0.038083
 C        -11.156436    0.332973    0.071563
 C        -11.673461    1.618532    0.115224
 C        -13.072522    1.904692    0.125689
 N        -14.202474    2.189850    0.135475
 C        -10.884458    2.808070    0.156412
 N        -10.287809    3.808894    0.192130
 H         -8.856627    1.806791    0.090981
 H        -10.924284   -4.173563   -0.059414
 H        -14.097060   -0.296849    0.063946
 C          3.583293   -2.822070    1.243854
 C          2.896653   -2.415697    2.391699
 C          2.916511   -3.194022    3.552776
 C          3.621614   -4.399272    3.610127
 C          4.315367   -4.801093    2.457987
 C          4.297786   -4.030747    1.299475
 H          2.342277   -1.483170    2.394987
 H          2.371099   -2.850041    4.428522
 H          4.879107   -5.731264    2.468303
 H          4.838898   -4.379702    0.424536
 C          3.373484   -2.745028   -1.327784
 C          3.877797   -2.297123   -2.557019
 C          3.569441   -2.958481   -3.743801
 C          2.744850   -4.091954   -3.753411
 C          2.234693   -4.530451   -2.526536
 C          2.541493   -3.871521   -1.334511
 H          4.518002   -1.420733   -2.593248
 H          3.979132   -2.586126   -4.680055
 H          1.587463   -5.404037   -2.496376
 H          2.135774   -4.253178   -0.403049
 C         -3.373484    2.745029    1.327782
 C         -3.877797    2.297125    2.557017
 C         -3.569441    2.958484    3.743798
 C         -2.744850    4.091957    3.753407
 C         -2.234694    4.530454    2.526532
 C         -2.541494    3.871523    1.334507
 H         -4.518001    1.420734    2.593248
 H         -3.979131    2.586130    4.680053
 H         -1.587464    5.404041    2.496371
 H         -2.135775    4.253179    0.403045
 C         -3.583294    2.822068   -1.243856
 C         -2.896653    2.415694   -2.391701
 C         -2.916512    3.194018   -3.552779
 C         -3.621615    4.399267   -3.610131
 C         -4.315367    4.801090   -2.457991
 C         -4.297787    4.030744   -1.299478
 H         -2.342277    1.483167   -2.394988
 H         -2.371100    2.850036   -4.428524
 H         -4.879108    5.731260   -2.468308
 H         -4.838899    4.379700   -0.424540
 C          3.628157   -5.252092    4.856720
 H          3.240200   -4.701786    5.719452
 H          3.006647   -6.147920    4.728700
 C          2.441231   -4.826016   -5.037969
 H          1.496724   -5.375662   -4.971263
 H          2.376211   -4.136955   -5.886846
 C         -2.441231    4.826020    5.037965
 H         -2.376181    4.136956    5.886837
 H         -1.496739    5.375691    4.971248
 C         -3.628157    5.252086   -4.856725
 H         -3.006642    6.147911   -4.728707
 H         -3.240205    4.701777   -5.719457
 H         -4.639870    5.596292   -5.100092
 H         -3.227737    5.555512    5.272813
 H          3.227722   -5.555529   -5.272801
 H          4.639871   -5.596292    5.100091
 H         -0.455216    2.476247   -0.002526
 H          0.455216   -2.476247    0.002527
 F        -15.159474   -2.639596    0.000709
 F        -13.507432   -4.735045   -0.065894
 F         13.507430    4.735046    0.065894
 F         15.159473    2.639598   -0.000712
       126
T1: Total Energy = -5204.19982723
 C          7.233666    0.513891    0.041557
 C          6.326048    1.611397    0.060794
 C          5.001132    1.233297    0.040687
 C          4.841906   -0.172699    0.004096
 C          3.474274   -0.477205   -0.010719
 C          2.714241    0.717572   -0.010260
 C          1.332907    0.487893    0.000578
 C          1.030356   -0.926654   -0.003361
 C         -0.250932   -1.416450   -0.003128
 S          6.347667   -1.035869   -0.006783
 C          3.638260    1.947530    0.025038
 S          2.506727   -1.921857   -0.010722
 H          6.689027    2.632612    0.087540
 C         -7.233669   -0.513868   -0.041489
 C         -6.326055   -1.611378   -0.060686
 C         -5.001137   -1.233284   -0.040561
 C         -4.841906    0.172712   -0.003985
 C         -3.474273    0.477214    0.010853
 C         -2.714244   -0.717565    0.010413
 C         -1.332908   -0.487888   -0.000413
 C         -1.030356    0.926660    0.003521
 C          0.250932    1.416456    0.003292
 S         -6.347664    1.035889    0.006842
 C         -3.638268   -1.947522   -0.024890
 S         -2.506725    1.921864    0.010856
 H         -6.689038   -2.632591   -0.087424
 C          8.623798    0.741399    0.059751
 C          9.742077   -0.088461    0.047282
 C          9.720250   -1.567521    0.005240
 O          8.738209   -2.303606   -0.019796
 C         11.129281   -2.017874   -0.001216
 C         11.603465   -3.321989   -0.037085
 C         12.980438   -3.496037   -0.035315
 C         13.837062   -2.389361    0.001720
 C         13.359743   -1.083535    0.037917
 C         11.973668   -0.894387    0.036079
 C         11.134112    0.333475    0.069005
 C         11.645655    1.628025    0.113850
 C         13.041759    1.920013    0.126563
 N         14.171191    2.210166    0.138304
 C         10.853954    2.813823    0.153890
 N         10.257432    3.815640    0.188787
 H          8.830929    1.804767    0.088656
 H         10.932745   -4.174001   -0.065503
 H         14.080592   -0.278104    0.065326
 C         -8.623801   -0.741370   -0.059716
 C         -9.742076    0.088496   -0.047331
 C         -9.720245    1.567558   -0.005365
 O         -8.738203    2.303638    0.019713
 C        -11.129275    2.017919    0.000954
 C        -11.603454    3.322039    0.036702
 C        -12.980426    3.496094    0.034812
 C        -13.837053    2.389421   -0.002218
 C        -13.359738    1.083589   -0.038293
 C        -11.973664    0.894434   -0.036338
 C        -11.134112   -0.333435   -0.069115
 C        -11.645659   -1.627986   -0.113895
 C        -13.041764   -1.919966   -0.126707
 N        -14.171197   -2.210115   -0.138523
 C        -10.853962   -2.813793   -0.153750
 N        -10.257445   -3.815618   -0.188486
 H         -8.830936   -1.804738   -0.088589
 H        -10.932732    4.174049    0.065118
 H        -14.080589    0.278161   -0.065705
 C          3.566201    2.820575   -1.244405
 C          2.890815    2.411051   -2.397728
 C          2.911391    3.192298   -3.556568
 C          3.607914    4.403011   -3.606596
 C          4.292451    4.806628   -2.449644
 C          4.273499    4.033715   -1.292889
 H          2.345165    1.473332   -2.407568
 H          2.374705    2.845935   -4.436686
 H          4.850186    5.740363   -2.454552
 H          4.808445    4.383778   -0.414789
 C          3.368164    2.733930    1.329740
 C          3.881029    2.277827    2.552479
 C          3.582945    2.933500    3.745272
 C          2.759806    4.067512    3.767163
 C          2.240867    4.513900    2.546202
 C          2.537960    3.861923    1.348402
 H          4.520098    1.400351    2.580116
 H          3.999459    2.555627    4.676177
 H          1.595497    5.389075    2.525983
 H          2.127615    4.250721    0.421909
 C         -3.368164   -2.733945   -1.329574
 C         -3.880713   -2.277680   -2.552386
 C         -3.582608   -2.933404   -3.745145
 C         -2.759767   -4.067634   -3.766928
 C         -2.241151   -4.514193   -2.545892
 C         -2.538266   -3.862164   -1.348126
 H         -4.519546   -1.400035   -2.580106
 H         -3.998870   -2.555399   -4.676109
 H         -1.596025   -5.389545   -2.525587
 H         -2.128191   -4.251104   -0.421571
 C         -3.566226   -2.820567    1.244554
 C         -2.891072   -2.410945    2.397977
 C         -2.911655   -3.192225    3.556794
 C         -3.607950   -4.403074    3.606695
 C         -4.292246   -4.806798    2.449637
 C         -4.273286   -4.033851    1.292905
 H         -2.345602   -1.473122    2.407915
 H         -2.375155   -2.845782    4.436994
 H         -4.849794   -5.740645    2.454442
 H         -4.808032   -4.384002    0.414718
 C          3.616090    5.258656   -4.851067
 H          3.236865    4.707932   -5.717357
 H          2.987925    6.149966   -4.724219
 C          2.466586    4.795016    5.057654
 H          1.520640    5.343354    5.002180
 H          2.411059    4.102060    5.903937
 C         -2.466530   -4.795186   -5.057388
 H         -2.410652   -4.102221   -5.903641
 H         -1.520753   -5.343800   -5.001763
 C         -3.616130   -5.258753    4.851143
 H         -2.987769   -6.149934    4.724361
 H         -3.237139   -4.707975    5.717500
 H         -4.626922   -5.610418    5.087291
 H         -3.254277   -5.524688   -5.287749
 H          3.254161    5.524755    5.287853
 H          4.626919    5.610111   -5.087367
 H         -0.451222   -2.481338   -0.010959
 H          0.451223    2.481344    0.011122
 F        -15.158482    2.613557   -0.002556
 F        -13.519633    4.722352    0.068151
 F         13.519650   -4.722290   -0.068776
 F         15.158492   -2.613490    0.001942
       126
S1: Total Energy = -5204.18149385
 C          7.237051    0.519406    0.041812
 C          6.337365    1.613441    0.059895
 C          5.004817    1.234043    0.041833
 C          4.848861   -0.164297    0.007869
 C          3.469837   -0.469644   -0.006955
 C          2.718408    0.718717   -0.009952
 C          1.330699    0.489210    0.000298
 C          1.030823   -0.923925    0.000469
 C         -0.252172   -1.415555    0.001085
 S          6.349342   -1.028137   -0.003512
 C          3.642764    1.947984    0.025046
 S          2.507883   -1.915637   -0.002872
 H          6.699397    2.635031    0.084407
 C         -7.237054   -0.519401   -0.041708
 C         -6.337370   -1.613438   -0.059722
 C         -5.004822   -1.234042   -0.041641
 C         -4.848865    0.164298   -0.007703
 C         -3.469841    0.469644    0.007134
 C         -2.718412   -0.718717    0.010158
 C         -1.330703   -0.489211   -0.000097
 C         -1.030827    0.923924   -0.000274
 C          0.252168    1.415554   -0.000887
 S         -6.349344    1.028141    0.003637
 C         -3.642769   -1.947984   -0.024817
 S         -2.507886    1.915637    0.003057
 H         -6.699404   -2.635028   -0.084225
 C          8.634974    0.744394    0.059383
 C          9.746966   -0.084798    0.048042
 C          9.720232   -1.565220    0.005723
 O          8.734691   -2.296712   -0.018959
 C         11.126799   -2.019218   -0.001745
 C         11.596806   -3.324566   -0.038064
 C         12.973520   -3.503441   -0.037142
 C         13.833636   -2.398990   -0.000484
 C         13.361525   -1.091578    0.036247
 C         11.975028   -0.896231    0.035343
 C         11.144415    0.332225    0.069621
 C         11.658556    1.627787    0.116078
 C         13.054458    1.917006    0.126710
 N         14.185404    2.203418    0.136705
 C         10.868889    2.813601    0.160385
 N         10.271472    3.815462    0.198768
 H          8.842521    1.807895    0.086818
 H         10.923190   -4.174326   -0.066116
 H         14.084935   -0.288429    0.063318
 C         -8.634977   -0.744384   -0.059357
 C         -9.746965    0.084815   -0.048143
 C         -9.720222    1.565239   -0.005921
 O         -8.734677    2.296725    0.018788
 C        -11.126786    2.019250    0.001370
 C        -11.596786    3.324606    0.037535
 C        -12.973498    3.503492    0.036458
 C        -13.833620    2.399045   -0.000200
 C        -13.361516    1.091626   -0.036778
 C        -11.975021    0.896267   -0.035719
 C        -11.144415   -0.332199   -0.069822
 C        -11.658565   -1.627759   -0.116232
 C        -13.054468   -1.916965   -0.127001
 N        -14.185416   -2.203366   -0.137101
 C        -10.868905   -2.813585   -0.160356
 N        -10.271495   -3.815456   -0.198592
 H         -8.842528   -1.807885   -0.086760
 H        -10.923166    4.174362    0.065588
 H        -14.084930    0.288481   -0.063860
 C          3.571925    2.820806   -1.244223
 C          2.896795    2.411710   -2.397956
 C          2.918771    3.192921   -3.556715
 C          3.616191    4.403255   -3.606232
 C          4.300088    4.806515   -2.448807
 C          4.279880    4.033643   -1.292031
 H          2.350533    1.474338   -2.408303
 H          2.382422    2.847025   -4.437212
 H          4.858396    5.739884   -2.453327
 H          4.814259    4.383438   -0.413480
 C          3.370700    2.733087    1.329987
 C          3.882654    2.276248    2.552846
 C          3.583553    2.931480    3.745779
 C          2.760420    4.065291    3.767427
 C          2.242117    4.512256    2.545991
 C          2.540116    3.860981    1.348274
 H          4.521510    1.398631    2.580244
 H          3.999371    2.553313    4.676826
 H          1.596828    5.387498    2.525816
 H          2.130815    4.250248    0.421501
 C         -3.370691   -2.733129   -1.329730
 C         -3.882509   -2.276254   -2.552633
 C         -3.583392   -2.931538   -3.745533
 C         -2.760380   -4.065439   -3.767103
 C         -2.242216   -4.512441   -2.545621
 C         -2.540232   -3.861115   -1.347937
 H         -4.521270   -1.398570   -2.580092
 H         -3.999101   -2.553342   -4.676617
 H         -1.597026   -5.387755   -2.525384
 H         -2.131049   -4.250415   -0.421125
 C         -3.571947   -2.820780    1.244471
 C         -2.897003   -2.411579    2.398277
 C         -2.918992   -3.192788    3.557036
 C         -3.616237   -4.403227    3.606480
 C         -4.299941   -4.806595    2.448979
 C         -4.279721   -4.033724    1.292203
 H         -2.350882   -1.474126    2.408682
 H         -2.382794   -2.846809    4.437592
 H         -4.858107   -5.740050    2.453439
 H         -4.813943   -4.383606    0.413591
 C          3.625754    5.258838   -4.850690
 H          3.247526    4.708116   -5.717403
 H          2.997436    6.150134   -4.724506
 C          2.466170    4.793395    5.057234
 H          1.502821    5.311859    5.013631
 H          2.446553    4.105915    5.909375
 C         -2.466114   -4.793597   -5.056876
 H         -2.446361   -4.106132   -5.909027
 H         -1.502825   -5.312165   -5.013194
 C         -3.625810   -5.258807    4.850940
 H         -2.997343   -6.150008    4.724830
 H         -3.247764   -4.708024    5.717694
 H         -4.636874   -5.610426    5.085903
 H         -3.234058   -5.549647   -5.267761
 H          3.234047    5.549526    5.268075
 H          4.636844    5.610305   -5.085765
 H         -0.451141   -2.480783   -0.003685
 H          0.451138    2.480783    0.003878
 F        -15.154195    2.628204    0.000284
 F        -13.508824    4.731695    0.070169
 F         13.508854   -4.731637   -0.071008
 F         15.154213   -2.628137   -0.001122
