       134
S0: Total Energy = -5036.34758535
 C          7.285661    0.092609    0.016717
 C          6.471298    1.242649    0.101489
 C          5.111636    0.959344    0.116683
 C          4.860247   -0.411175    0.037486
 C          3.446369   -0.616164    0.049092
 C          2.785418    0.598902    0.092804
 C          1.358740    0.437356    0.109719
 C          0.999284   -0.951839    0.125254
 C         -0.317681   -1.404215    0.145865
 S          6.280753   -1.380018   -0.052040
 C          3.800620    1.763248    0.176465
 S          2.412715   -2.014690    0.048046
 H          6.904699    2.235892    0.146261
 C         -7.280264   -0.096214   -0.075362
 C         -6.463840   -1.246821   -0.119371
 C         -5.104858   -0.964449   -0.063486
 C         -4.856785    0.405063    0.032800
 C         -3.443717    0.608214    0.091135
 C         -2.780891   -0.606256    0.072536
 C         -1.353591   -0.443854    0.096732
 C         -0.994370    0.948394    0.084265
 C          0.323797    1.400223    0.075563
 S         -6.279123    1.375379    0.048048
 C         -3.793693   -1.770159   -0.056097
 S         -2.413308    2.007355    0.127196
 H         -6.894786   -2.239706   -0.189060
 C          8.695414    0.214805   -0.007503
 C          9.741752   -0.686472   -0.080605
 C          9.608395   -2.157303   -0.152858
 O          8.569847   -2.812953   -0.163132
 C         10.978685   -2.711471   -0.209984
 C         11.359712   -4.043929   -0.284706
 C         12.725299   -4.335602   -0.327146
 C         13.665273   -3.298689   -0.293887
 C         13.275761   -1.956769   -0.218758
 C         11.909664   -1.656668   -0.176293
 C         11.170264   -0.367986   -0.096643
 C         11.774128    0.879520   -0.050412
 C         13.188785    1.075289   -0.074342
 N         14.333040    1.296181   -0.090685
 C         11.068977    2.119186    0.025372
 N         10.543141    3.157860    0.087716
 H          8.977492    1.260574    0.044777
 H         10.606176   -4.825210   -0.308632
 H         13.061314   -5.366598   -0.385839
 H         14.724570   -3.535822   -0.326979
 H         14.035816   -1.188047   -0.195327
 C         -8.689757   -0.217082   -0.123803
 C         -9.737418    0.685018   -0.102362
 C         -9.606483    2.155746   -0.022810
 O         -8.569085    2.810193    0.040557
 C        -10.977287    2.711225   -0.035464
 C        -11.360224    4.044100    0.019774
 C        -12.725894    4.337143   -0.006780
 C        -13.664083    3.301167   -0.087247
 C        -13.272697    1.958857   -0.142581
 C        -11.906479    1.657350   -0.116134
 C        -11.165408    0.367920   -0.158109
 C        -11.767195   -0.879042   -0.233591
 C        -13.181465   -1.073516   -0.280985
 N        -14.325309   -1.293211   -0.322195
 C        -11.060127   -2.119385   -0.271895
 N        -10.532647   -3.158525   -0.305941
 H         -8.969683   -1.262478   -0.192234
 H        -10.608051    4.824607    0.081637
 H        -13.063440    5.368465    0.034793
 H        -14.723450    3.539417   -0.107449
 H        -14.031377    1.190901   -0.204307
 C          3.795253    2.695326   -1.050195
 C          3.202314    2.309066   -2.257780
 C          3.308675    3.105018   -3.399855
 C          4.012827    4.313945   -3.382297
 C          4.620366    4.690695   -2.176510
 C          4.519330    3.897858   -1.034847
 H          2.656989    1.372369   -2.318473
 H          2.836659    2.773258   -4.321998
 H          5.188836    5.616870   -2.129016
 H          5.011118    4.222759   -0.123049
 C          3.653299    2.473871    1.547323
 C          4.113295    1.837687    2.710784
 C          3.956265    2.422803    3.964592
 C          3.336460    3.671326    4.111139
 C          2.869085    4.298405    2.951776
 C          3.018973    3.712004    1.693573
 H          4.600686    0.869654    2.642616
 H          4.325631    1.899885    4.844084
 H          2.373194    5.263592    3.027909
 H          2.632436    4.228312    0.824664
 C         -3.580881   -2.490003   -1.412532
 C         -3.988336   -1.863525   -2.600557
 C         -3.770679   -2.456342   -3.841724
 C         -3.140390   -3.703372   -3.950513
 C         -2.725628   -4.320976   -2.766242
 C         -2.935981   -3.726770   -1.520527
 H         -4.481832   -0.896960   -2.561774
 H         -4.100245   -1.940769   -4.741130
 H         -2.223123   -5.284609   -2.812519
 H         -2.587342   -4.235335   -0.631292
 C         -3.857537   -2.690998    1.178117
 C         -3.361778   -2.276079    2.419869
 C         -3.540382   -3.055262    3.564511
 C         -4.222728   -4.275851    3.515328
 C         -4.733991   -4.680813    2.274690
 C         -4.561496   -3.904452    1.130190
 H         -2.838202   -1.328701    2.504605
 H         -3.143509   -2.700952    4.513276
 H         -5.283744   -5.616521    2.201174
 H         -4.982673   -4.250278    0.191310
 C          4.103205    5.190388   -4.609227
 H          3.927711    4.616184   -5.524628
 H          3.356693    5.995315   -4.579414
 C          3.201008    4.322029    5.467461
 H          2.387922    5.055077    5.480167
 H          3.003781    3.580761    6.249660
 C         -2.939232   -4.362824   -5.294384
 H         -2.720644   -3.624943   -6.074046
 H         -2.115656   -5.083706   -5.267114
 C         -4.390643   -5.134355    4.746700
 H         -3.635340   -5.930756    4.782580
 H         -4.286690   -4.544205    5.662864
 H         -5.372023   -5.620806    4.764417
 H         -3.839855   -4.907181   -5.608502
 H          4.121975    4.850211    5.748405
 H          5.086484    5.666576   -4.689140
 O         -0.625861   -2.737823    0.155937
 O          0.659027    2.724448    0.074725
 C         -0.297840   -3.476262    1.348215
 H          0.782127   -3.613111    1.457560
 H         -0.701617   -2.979365    2.234151
 H         -0.774844   -4.450289    1.230284
 C          0.227264    3.535046   -1.033201
 H          0.301338    2.981827   -1.973475
 H         -0.796050    3.896508   -0.894078
 H          0.908517    4.386740   -1.061165
       134
T1: Total Energy = -5036.30809870
 C          7.271625    0.085164    0.021807
 C          6.437250    1.234566    0.071859
 C          5.088024    0.940840    0.061115
 C          4.841471   -0.444539    0.003636
 C          3.454009   -0.655808    0.006119
 C          2.758780    0.575332    0.025306
 C          1.364686    0.398074    0.028395
 C          0.988631   -0.994539    0.042746
 C         -0.335006   -1.404318    0.029781
 S          6.285788   -1.404127   -0.041085
 C          3.773011    1.744131    0.097684
 S          2.426202   -2.046270    0.005941
 H          6.864352    2.230098    0.112046
 C         -7.271629   -0.085115   -0.021654
 C         -6.437295   -1.234539   -0.071736
 C         -5.088054   -0.940864   -0.060748
 C         -4.841463    0.444492   -0.003073
 C         -3.453988    0.655712   -0.005445
 C         -2.758797   -0.575433   -0.024730
 C         -1.364693   -0.398196   -0.027813
 C         -0.988626    0.994406   -0.042111
 C          0.334999    1.404208   -0.029166
 S         -6.285746    1.404129    0.041621
 C         -3.773061   -1.744193   -0.097317
 S         -2.426166    2.046168   -0.005178
 H         -6.864433   -2.230047   -0.112134
 C          8.674652    0.220867    0.025138
 C          9.736379   -0.678581   -0.012074
 C          9.617159   -2.151791   -0.067823
 O          8.584663   -2.818033   -0.090189
 C         10.992646   -2.696631   -0.091144
 C         11.387279   -4.025242   -0.142566
 C         12.757285   -4.305013   -0.155263
 C         13.684422   -3.258364   -0.116407
 C         13.279672   -1.918201   -0.064542
 C         11.911197   -1.631168   -0.051758
 C         11.153549   -0.349885   -0.001471
 C         11.748050    0.909523    0.046162
 C         13.159452    1.116520    0.051030
 N         14.302862    1.346673    0.057376
 C         11.034185    2.143499    0.095779
 N         10.502801    3.181374    0.137679
 H          8.949467    1.268495    0.066920
 H         10.641743   -4.814165   -0.171746
 H         13.104212   -5.333332   -0.195206
 H         14.746824   -3.484171   -0.126525
 H         14.031551   -1.141589   -0.035843
 C         -8.674665   -0.220774   -0.025279
 C         -9.736379    0.678692    0.011779
 C         -9.617157    2.151889    0.067845
 O         -8.584661    2.818114    0.090678
 C        -10.992645    2.696745    0.090786
 C        -11.387273    4.025355    0.142278
 C        -12.757277    4.305148    0.154521
 C        -13.684419    3.258520    0.115169
 C        -13.279675    1.918359    0.063239
 C        -11.911199    1.631304    0.050903
 C        -11.153553    0.350017    0.000702
 C        -11.748051   -0.909379   -0.047209
 C        -13.159456   -1.116353   -0.052626
 N        -14.302869   -1.346480   -0.059413
 C        -11.034185   -2.143364   -0.096594
 N        -10.502791   -3.181240   -0.138318
 H         -8.949498   -1.268390   -0.067245
 H        -10.641730    4.814259    0.171852
 H        -13.104204    5.333466    0.194494
 H        -14.746820    3.484346    0.124938
 H        -14.031555    1.141763    0.034141
 C          3.768372    2.671234   -1.132375
 C          3.078338    2.346076   -2.304666
 C          3.171997    3.150182   -3.442800
 C          3.960968    4.304901   -3.456655
 C          4.663765    4.621795   -2.285263
 C          4.573459    3.822228   -1.148497
 H          2.464070    1.452353   -2.343239
 H          2.622661    2.866168   -4.337567
 H          5.297391    5.505583   -2.261778
 H          5.135544    4.103393   -0.262982
 C          3.624311    2.463618    1.464471
 C          3.994358    1.789259    2.638866
 C          3.843995    2.381711    3.889855
 C          3.322582    3.675994    4.022926
 C          2.946738    4.342832    2.852192
 C          3.089931    3.749533    1.596509
 H          4.405758    0.785741    2.581354
 H          4.141689    1.828897    4.778055
 H          2.531810    5.346265    2.917521
 H          2.783352    4.301849    0.717056
 C         -3.624250   -2.463558   -1.464140
 C         -3.994240   -1.789103   -2.638516
 C         -3.843755   -2.381428   -3.889533
 C         -3.322249   -3.675685   -4.022677
 C         -2.946489   -4.342610   -2.851986
 C         -3.089813   -3.749427   -1.596245
 H         -4.405699   -0.785613   -2.580934
 H         -4.141413   -1.828557   -4.777710
 H         -2.531534   -5.346027   -2.917372
 H         -2.783297   -4.301815   -0.716816
 C         -3.768531   -2.671423    1.132659
 C         -3.078551   -2.346419    2.305023
 C         -3.172292   -3.150656    3.443056
 C         -3.961291   -4.305362    3.456732
 C         -4.664036   -4.622096    2.285268
 C         -4.573646   -3.822396    1.148600
 H         -2.464269   -1.452712    2.343733
 H         -2.622999   -2.866759    4.337887
 H         -5.297691   -5.505860    2.261647
 H         -5.135686   -4.103453    0.263023
 C          4.047394    5.187560   -4.679316
 H          3.667831    4.675928   -5.569325
 H          3.459273    6.105768   -4.550396
 C          3.196749    4.332080    5.377387
 H          2.433380    5.116889    5.373053
 H          2.933430    3.604001    6.152324
 C         -3.196207   -4.331526   -5.377238
 H         -2.929445   -3.603872   -6.151413
 H         -2.435193   -5.118601   -5.372041
 C         -4.047751   -5.188179    4.679276
 H         -3.459031   -6.106031    4.550534
 H         -3.668867   -4.676411    5.569497
 H         -5.080650   -5.495500    4.877951
 H         -4.143719   -4.795031   -5.682692
 H          4.143345    4.798624    5.681063
 H          5.080386    5.494263   -4.878477
 O         -0.800300   -2.668470    0.057640
 O          0.800244    2.668369   -0.057022
 C         -0.073170   -3.733456    0.683749
 H          0.682871   -4.146392    0.009452
 H          0.387425   -3.396249    1.616416
 H         -0.817117   -4.500154    0.902144
 C          0.073223    3.733243   -0.683431
 H         -0.387312    3.395847   -1.616068
 H         -0.682881    4.146360   -0.009317
 H          0.817213    4.499868   -0.901932
       134
S1: Total Energy = -5036.29078280
 C          7.283519    0.088724    0.013614
 C          6.457844    1.233754    0.063987
 C          5.099074    0.939265    0.045405
 C          4.857224   -0.435559   -0.017956
 C          3.452939   -0.644784   -0.020077
 C          2.769821    0.574314    0.004600
 C          1.362398    0.395202    0.018745
 C          0.991708   -0.991627    0.030265
 C         -0.342091   -1.400576    0.024479
 S          6.295674   -1.396253   -0.060254
 C          3.784147    1.742967    0.076145
 S          2.430145   -2.035907   -0.013813
 H          6.884779    2.228985    0.110876
 C         -7.283564   -0.088779   -0.013481
 C         -6.457825   -1.233760   -0.063790
 C         -5.099073   -0.939196   -0.044996
 C         -4.857286    0.435632    0.018449
 C         -3.453002    0.644896    0.020700
 C         -2.769845   -0.574182   -0.003918
 C         -1.362430   -0.395039   -0.017842
 C         -0.991754    0.991800   -0.029314
 C          0.342052    1.400743   -0.023467
 S         -6.295798    1.396248    0.060587
 C         -3.784132   -1.742856   -0.075676
 S         -2.430239    2.036039    0.014612
 H         -6.884668   -2.229029   -0.110732
 C          8.695247    0.220621    0.024667
 C          9.750289   -0.677318   -0.009440
 C          9.626082   -2.151978   -0.070962
 O          8.590452   -2.812660   -0.102676
 C         10.998861   -2.700692   -0.086696
 C         11.389110   -4.030419   -0.138991
 C         12.758250   -4.315900   -0.143044
 C         13.688747   -3.271956   -0.094824
 C         13.289591   -1.930678   -0.042135
 C         11.921071   -1.636524   -0.038090
 C         11.172798   -0.354986    0.010487
 C         11.770124    0.904952    0.064392
 C         13.181206    1.108649    0.077142
 N         14.325913    1.334551    0.089785
 C         11.058576    2.139259    0.112673
 N         10.527282    3.177853    0.153810
 H          8.970248    1.268170    0.071366
 H         10.640659   -4.816350   -0.175292
 H         13.101771   -5.345326   -0.183372
 H         14.750395   -3.501947   -0.098128
 H         14.044159   -1.156934   -0.005939
 C         -8.695287   -0.220737   -0.024803
 C         -9.750388    0.677139    0.009093
 C         -9.626291    2.151810    0.070638
 O         -8.590713    2.812555    0.102731
 C        -10.999104    2.700447    0.085846
 C        -11.389445    4.030153    0.137963
 C        -12.758603    4.315561    0.141483
 C        -13.689023    3.271565    0.092934
 C        -13.289773    1.930306    0.040438
 C        -11.921236    1.636225    0.036915
 C        -11.172874    0.354729   -0.011333
 C        -11.770114   -0.905246   -0.065377
 C        -13.181181   -1.109012   -0.078733
 N        -14.325868   -1.334986   -0.091853
 C        -11.058487   -2.139523   -0.113218
 N        -10.527154   -3.178111   -0.154008
 H         -8.970221   -1.268298   -0.071620
 H        -10.641050    4.816124    0.174531
 H        -13.102195    5.344969    0.181650
 H        -14.750685    3.501496    0.095829
 H        -14.044287    1.156521    0.003982
 C          3.780990    2.665083   -1.157892
 C          3.064004    2.354960   -2.317948
 C          3.156995    3.155612   -3.458701
 C          3.971069    4.292296   -3.487272
 C          4.699537    4.595109   -2.327753
 C          4.610388    3.798750   -1.188943
 H          2.429194    1.475424   -2.345673
 H          2.586539    2.883156   -4.343794
 H          5.352649    5.464811   -2.315758
 H          5.192545    4.068940   -0.313007
 C          3.634041    2.468956    1.439255
 C          3.973059    1.787611    2.619135
 C          3.823676    2.386323    3.866990
 C          3.334841    3.694392    3.991794
 C          2.990599    4.368607    2.815697
 C          3.132993    3.768873    1.562747
 H          4.359579    0.773898    2.566940
 H          4.096760    1.828037    4.759655
 H          2.602568    5.383161    2.874376
 H          2.854043    4.328215    0.678223
 C         -3.633805   -2.468641   -1.438882
 C         -3.972984   -1.787250   -2.618699
 C         -3.823356   -2.385756   -3.866613
 C         -3.334095   -3.693664   -3.991557
 C         -2.989734   -4.367925   -2.815535
 C         -3.132373   -3.768389   -1.562507
 H         -4.359837   -0.773671   -2.566396
 H         -4.096580   -1.827445   -4.759221
 H         -2.601418   -5.382363   -2.874323
 H         -2.853322   -4.327767   -0.678040
 C         -3.781081   -2.665145    1.158214
 C         -3.064512   -2.354951    2.318533
 C         -3.157641   -3.155731    3.459156
 C         -3.971418   -4.292668    3.487341
 C         -4.699499   -4.595503    2.327612
 C         -4.610210   -3.798992    1.188893
 H         -2.429976   -1.475222    2.346528
 H         -2.587567   -2.883202    4.344476
 H         -5.352428   -5.465336    2.315353
 H         -5.192079   -4.069203    0.312769
 C          4.057929    5.171131   -4.712618
 H          3.641639    4.671713   -5.593067
 H          3.503404    6.108180   -4.571214
 C          3.211133    4.356165    5.343627
 H          2.472815    5.164431    5.328106
 H          2.914875    3.637842    6.115784
 C         -3.210030   -4.355128   -5.343509
 H         -2.911098   -3.637125   -6.114948
 H         -2.473534   -5.165033   -5.327335
 C         -4.058009   -5.171833    4.712469
 H         -3.497888   -6.105883    4.573167
 H         -3.647467   -4.670158    5.594343
 H         -5.094949   -5.450067    4.931992
 H         -4.167141   -4.789925   -5.660926
 H          4.167694    4.793291    5.659514
 H          5.095578    5.443818   -4.935837
 O         -0.817204   -2.656770    0.052564
 O          0.817221    2.656915   -0.051485
 C         -0.043336   -3.773460    0.506467
 H          0.665349   -4.099639   -0.260136
 H          0.476315   -3.535639    1.438681
 H         -0.768109   -4.567236    0.687026
 C          0.043179    3.773834   -0.504513
 H         -0.476741    3.536554   -1.436710
 H         -0.665282    4.099532    0.262505
 H          0.767871    4.567738   -0.684822
