       152
S0: Total Energy = -7335.30528243
 C         -9.154432   -0.560010    0.052440
 C         -8.405205   -1.758121    0.007065
 C         -7.033160   -1.558542    0.028001
 C         -6.699408   -0.197340    0.078990
 C         -5.278296   -0.069199    0.071810
 C         -4.704227   -1.336696   -0.004102
 C         -0.799447   -1.124689   -0.022366
 C         -1.395390    0.172699    0.061685
 C         -0.579389    1.327459    0.087670
 S         -8.063856    0.852336    0.111356
 C         -5.774191   -2.438165   -0.035755
 S         -4.123202    1.231778    0.160194
 H         -8.896334   -2.724041   -0.040327
 C          9.154422    0.560000   -0.052655
 C          8.405216    1.758120   -0.007149
 C          7.033166    1.558554   -0.027868
 C          6.699391    0.197355   -0.078804
 C          5.278277    0.069235   -0.071528
 C          4.704237    1.336744    0.004435
 C          0.799445    1.124794    0.023037
 C          1.395382   -0.172594   -0.060990
 C          0.579387   -1.327352   -0.086955
 S          8.063823   -0.852337   -0.111316
 C          5.774216    2.438193    0.036016
 S          4.123149   -1.231727   -0.159725
 H          8.896363    2.724035    0.040153
 C        -10.565472   -0.598870    0.043327
 C        -11.560486    0.365223    0.073042
 C        -11.342143    1.823932    0.128215
 O        -10.271753    2.424559    0.163222
 C        -12.680063    2.457306    0.133717
 C        -12.975628    3.813448    0.176692
 C        -14.316119    4.169989    0.170383
 C        -15.314893    3.188772    0.121754
 C        -15.017119    1.832158    0.079459
 C        -13.668063    1.458897    0.085952
 C        -13.002262    0.129049    0.050787
 C        -13.680688   -1.080078    0.008255
 C        -15.104614   -1.183536   -0.010140
 N        -16.261935   -1.320773   -0.026568
 C        -13.051364   -2.361417   -0.019356
 N        -12.588506   -3.431193   -0.041885
 H        -10.909169   -1.626569    0.000595
 H        -12.196576    4.567321    0.213416
 H        -15.839217    1.130761    0.043385
 C         10.565463    0.598833   -0.043786
 C         11.560444   -0.365288   -0.073673
 C         11.342037   -1.823985   -0.128880
 O         10.271618   -2.424560   -0.163874
 C         12.679932   -2.457408   -0.134603
 C         12.975434   -3.813562   -0.177662
 C         14.315911   -4.170158   -0.171569
 C         15.314732   -3.188983   -0.123070
 C         15.017020   -1.832358   -0.080690
 C         13.667979   -1.459039   -0.086962
 C         13.002231   -0.129161   -0.051668
 C         13.680696    1.079947   -0.009199
 C         15.104626    1.183378    0.009023
 N         16.261946    1.320642    0.025311
 C         13.051407    2.361299    0.018592
 N         12.588569    3.431081    0.041256
 H         10.909192    1.626524   -0.001123
 H         12.196346   -4.567401   -0.214287
 H         15.839154   -1.130997   -0.044736
 C         -5.802904   -3.237861   -1.354441
 C         -5.130171   -2.807636   -2.502131
 C         -5.238917   -3.513822   -3.702917
 C         -6.022562   -4.667538   -3.800879
 C         -6.702412   -5.090987   -2.648803
 C         -6.595137   -4.393201   -1.449155
 H         -4.518084   -1.911877   -2.472013
 H         -4.701379   -3.155230   -4.577669
 H         -7.325762   -5.981391   -2.690875
 H         -7.127888   -4.756463   -0.574960
 C         -5.589732   -3.339689    1.205543
 C         -6.201002   -3.038010    2.428861
 C         -5.962208   -3.817826    3.560416
 C         -5.104418   -4.923835    3.515764
 C         -4.486445   -5.215772    2.293196
 C         -4.723291   -4.441083    1.158233
 H         -6.870805   -2.187456    2.506729
 H         -6.454885   -3.559421    4.495056
 H         -3.808635   -6.063483    2.223685
 H         -4.236303   -4.707956    0.225225
 C          5.589665    3.339744   -1.205246
 C          6.200975    3.038166   -2.428571
 C          5.962098    3.817984   -3.560103
 C          5.104181    4.923899   -3.515423
 C          4.486170    5.215730   -2.292852
 C          4.723101    4.441036   -1.157908
 H          6.870877    2.187690   -2.506454
 H          6.454805    3.559659   -4.494749
 H          3.808261    6.063360   -2.223322
 H          4.236072    4.707824   -0.224896
 C          5.803069    3.237865    1.354720
 C          5.130451    2.807655    2.502476
 C          5.239338    3.513842    3.703256
 C          6.023022    4.667530    3.801142
 C          6.702748    5.090979    2.648987
 C          6.595334    4.393198    1.449355
 H          4.518335    1.911914    2.472427
 H          4.701873    3.155271    4.578061
 H          7.326107    5.981381    2.690985
 H          7.127982    4.756463    0.575099
 C         -6.121370   -5.446051   -5.091517
 H         -5.784484   -4.849480   -5.945090
 H         -5.501717   -6.351813   -5.057380
 C         -4.874917   -5.786489    4.734199
 H         -3.874996   -6.232877    4.725805
 H         -4.983886   -5.210183    5.658882
 C          4.874587    5.786552   -4.733841
 H          4.983391    5.210223   -5.658531
 H          3.874703    6.233018   -4.725322
 C          6.122089    5.446000    5.091787
 H          5.503957    6.352775    5.057092
 H          5.783604    4.850041    5.945151
 H          7.151514    5.766650    5.287424
 H          5.598352    6.611343   -4.777712
 H         -5.598619   -6.611341    4.777960
 H         -7.150415   -5.768357   -5.286389
 C          1.159901   -2.683749   -0.183191
 C          1.669098   -3.314710   -1.290538
 S          1.282254   -3.734383    1.222047
 C          2.155192   -4.629398   -1.022670
 H          1.689266   -2.850935   -2.271109
 C          2.022626   -5.011985    0.286442
 H          2.588666   -5.274500   -1.780049
 C         -1.159900    2.683853    0.183952
 C         -1.669145    3.314693    1.291354
 S         -1.282076    3.734679   -1.221136
 C         -2.155253    4.629398    1.023606
 H         -1.689345    2.850804    2.271870
 C         -2.022646    5.012116   -0.285464
 H         -2.588773    5.274416    1.781029
 C          2.420945   -6.310895    0.922482
 H          2.866017   -6.967758    0.169069
 H          3.157774   -6.165273    1.721177
 H          1.561026   -6.831909    1.359771
 C         -2.420967    6.311070   -0.921414
 H         -3.157712    6.165490   -1.720194
 H         -2.866145    6.967839   -0.167982
 H         -1.561030    6.832167   -1.358569
 C         -3.297547   -1.254759    0.009467
 C          3.297555    1.254828   -0.008926
 C          2.821993   -0.058523   -0.083003
 C         -2.822009    0.058601    0.083639
 S          1.996742    2.430618    0.075386
 S         -1.996712   -2.430529   -0.074768
 F         16.593352   -3.590342   -0.118420
 F         14.686377   -5.456560   -0.211274
 F        -14.686642    5.456376    0.209999
 F        -16.593528    3.590079    0.116885
       152
T1: Total Energy = -7335.26162318
 C         -9.129917   -0.557786    0.050894
 C         -8.374200   -1.763601    0.008720
 C         -7.010275   -1.563371    0.030324
 C         -6.667058   -0.191877    0.082859
 C         -5.267975   -0.069349    0.084149
 C         -4.679962   -1.354405    0.011529
 C         -0.793426   -1.134704   -0.011317
 C         -1.399346    0.167775    0.079345
 C         -0.574575    1.335402    0.097349
 S         -8.045746    0.860623    0.112294
 C         -5.755421   -2.450066   -0.024689
 S         -4.111843    1.237861    0.172020
 H         -8.866884   -2.728290   -0.038299
 C          9.129913    0.557770   -0.050980
 C          8.374201    1.763588   -0.008833
 C          7.010275    1.563364   -0.030446
 C          6.667053    0.191871   -0.082969
 C          5.267969    0.069346   -0.084221
 C          4.679960    1.354403   -0.011598
 C          0.793422    1.134697    0.011353
 C          1.399341   -0.167781   -0.079312
 C          0.574571   -1.335409   -0.097314
 S          8.045737   -0.860633   -0.112426
 C          5.755425    2.450063    0.024560
 S          4.111835   -1.237866   -0.172040
 H          8.866887    2.728275    0.038198
 C        -10.537743   -0.599545    0.038513
 C        -11.537126    0.370731    0.064232
 C        -11.318672    1.832666    0.116463
 O        -10.247629    2.431859    0.152825
 C        -12.655236    2.467317    0.117402
 C        -12.951631    3.822678    0.156042
 C        -14.293201    4.178931    0.145934
 C        -15.289016    3.196545    0.098049
 C        -14.989698    1.838647    0.060110
 C        -13.641273    1.466288    0.070325
 C        -12.971925    0.137711    0.040232
 C        -13.652091   -1.077930   -0.000168
 C        -15.074283   -1.180713   -0.021551
 N        -16.232435   -1.317252   -0.040326
 C        -13.025883   -2.359001   -0.021691
 N        -12.568475   -3.432080   -0.039347
 H        -10.883319   -1.625990   -0.003196
 H        -12.173336    4.577405    0.192327
 H        -15.811220    1.136553    0.024297
 C         10.537739    0.599520   -0.038524
 C         11.537117   -0.370763   -0.064191
 C         11.318655   -1.832695   -0.116457
 O         10.247609   -2.431882   -0.152828
 C         12.655214   -2.467357   -0.117293
 C         12.951601   -3.822720   -0.155908
 C         14.293168   -4.178984   -0.145711
 C         15.288988   -3.196607   -0.097760
 C         14.989677   -1.838706   -0.059842
 C         13.641256   -1.466336   -0.070148
 C         12.971917   -0.137753   -0.040085
 C         13.652091    1.077879    0.000406
 C         15.074282    1.180648    0.021891
 N         16.232435    1.317172    0.040745
 C         13.025894    2.358955    0.021951
 N         12.568496    3.432038    0.039625
 H         10.883319    1.625962    0.003209
 H         12.173302   -4.577441   -0.192244
 H         15.811203   -1.136618   -0.023971
 C         -5.783151   -3.251952   -1.342066
 C         -5.118236   -2.816817   -2.492462
 C         -5.225961   -3.524199   -3.692459
 C         -6.002099   -4.683343   -3.787031
 C         -6.675524   -5.110668   -2.632558
 C         -6.568881   -4.412015   -1.433461
 H         -4.513268   -1.916079   -2.465132
 H         -4.694633   -3.161890   -4.569421
 H         -7.293568   -6.004790   -2.672386
 H         -7.097321   -4.777781   -0.557851
 C         -5.583412   -3.347098    1.220885
 C         -6.203630   -3.038592    2.437919
 C         -5.975441   -3.814455    3.574484
 C         -5.119080   -4.921834    3.541174
 C         -4.491823   -5.220245    2.324601
 C         -4.718579   -4.450454    1.184521
 H         -6.872883   -2.186895    2.507412
 H         -6.475312   -3.551500    4.503950
 H         -3.815561   -6.069847    2.264112
 H         -4.226429   -4.723273    0.255895
 C          5.583399    3.347064   -1.221034
 C          6.203354    3.038386   -2.438159
 C          5.975146    3.814262   -3.574711
 C          5.119036    4.921834   -3.541293
 C          4.492055    5.220428   -2.324623
 C          4.718830    4.450622   -1.184556
 H          6.872409    2.186541   -2.507734
 H          6.474802    3.551167   -4.504252
 H          3.816002    6.070189   -2.264046
 H          4.226914    4.723593   -0.255851
 C          5.783189    3.252005    1.341901
 C          5.118406    2.816870    2.492367
 C          5.226156    3.524333    3.692320
 C          6.002190    4.683551    3.786770
 C          6.675472    5.110889    2.632212
 C          6.568806    4.412160    1.433166
 H          4.513513    1.916078    2.465133
 H          4.694923    3.162028    4.569341
 H          7.293417    6.005086    2.671936
 H          7.097123    4.777937    0.557488
 C         -6.100725   -5.462764   -5.077006
 H         -5.768591   -4.865188   -5.931695
 H         -5.477083   -6.365796   -5.043697
 C         -4.900595   -5.779742    4.764873
 H         -3.901143   -6.227210    4.766718
 H         -5.017088   -5.199739    5.686272
 C          4.900543    5.779750   -4.764984
 H          5.016607    5.199656   -5.686381
 H          3.901245    6.227562   -4.766606
 C          6.100925    5.463025    5.076704
 H          5.478396    6.366801    5.042884
 H          5.767567    4.865948    5.931262
 H          7.129314    5.788693    5.269232
 H          5.625780    6.603355   -4.805712
 H         -5.625556   -6.603601    4.805373
 H         -7.128841   -5.789629   -5.268932
 C          1.161014   -2.686021   -0.208908
 C          1.731604   -3.274979   -1.310480
 S          1.210169   -3.788615    1.160736
 C          2.203769   -4.598571   -1.066490
 H          1.801025   -2.776492   -2.271531
 C          2.001437   -5.029911    0.218654
 H          2.677282   -5.215344   -1.823378
 C         -1.161015    2.686018    0.208926
 C         -1.731569    3.275008    1.310498
 S         -1.210189    3.788582   -1.160743
 C         -2.203751    4.598590    1.066482
 H         -1.800963    2.776548    2.271565
 C         -2.001462    5.029891   -0.218681
 H         -2.677249    5.215381    1.823364
 C          2.366910   -6.351766    0.826285
 H          2.854087   -6.979781    0.074450
 H          3.058274   -6.236032    1.669200
 H          1.485039   -6.888353    1.195640
 C         -2.366969    6.351722   -0.826344
 H         -3.058352    6.235952   -1.669240
 H         -2.854138    6.979752   -0.074517
 H         -1.485115    6.888311   -1.195736
 C         -3.293317   -1.272681    0.029012
 C          3.293313    1.272677   -0.029027
 C          2.803870   -0.057543   -0.103291
 C         -2.803875    0.057539    0.103296
 S          1.992439    2.444845    0.055539
 S         -1.992443   -2.444852   -0.055519
 F         16.569130   -3.594804   -0.088951
 F         14.664215   -5.466609   -0.180936
 F        -14.664256    5.466553    0.181185
 F        -16.569163    3.594732    0.089325
       152
S1: Total Energy = -7335.24581741
 C         -9.134275   -0.557219    0.057691
 C         -8.383907   -1.758815    0.021532
 C         -7.013760   -1.558410    0.047784
 C         -6.674410   -0.192731    0.097266
 C         -5.266361   -0.070277    0.100374
 C         -4.683668   -1.350171    0.031775
 C         -0.794412   -1.134249    0.000843
 C         -1.398493    0.168722    0.098203
 C         -0.572215    1.336425    0.107067
 S         -8.049007    0.859458    0.119212
 C         -5.759587   -2.445575   -0.002408
 S         -4.113368    1.236907    0.187998
 H         -8.875506   -2.724084   -0.025347
 C          9.134268    0.557217   -0.057829
 C          8.383902    1.758813   -0.021603
 C          7.013752    1.558404   -0.047649
 C          6.674399    0.192722   -0.097042
 C          5.266350    0.070265   -0.099996
 C          4.683661    1.350160   -0.031372
 C          0.794404    1.134238   -0.000245
 C          1.398483   -0.168734   -0.097605
 C          0.572207   -1.336436   -0.106458
 S          8.048993   -0.859466   -0.119104
 C          5.759581    2.445566    0.002680
 S          4.113352   -1.236922   -0.187495
 H          8.875507    2.724083    0.025163
 C        -10.547648   -0.596627    0.038111
 C        -11.542793    0.371419    0.056588
 C        -11.321735    1.833353    0.111529
 O        -10.249244    2.429891    0.154353
 C        -12.656667    2.469704    0.106229
 C        -12.950810    3.825300    0.145583
 C        -14.291861    4.184465    0.129022
 C        -15.289363    3.203699    0.074144
 C        -14.993223    1.845451    0.035374
 C        -13.644809    1.468956    0.052053
 C        -12.981638    0.141495    0.022782
 C        -13.662721   -1.074557   -0.026708
 C        -15.084297   -1.176225   -0.057579
 N        -16.242912   -1.310887   -0.084308
 C        -13.036886   -2.355024   -0.050538
 N        -12.577772   -3.427820   -0.070667
 H        -10.892653   -1.623535   -0.003116
 H        -12.171208    4.578427    0.187265
 H        -15.815874    1.144953   -0.005854
 C         10.547644    0.596628   -0.038480
 C         11.542789   -0.371416   -0.057082
 C         11.321726   -1.833351   -0.111967
 O         10.249229   -2.429894   -0.154565
 C         12.656661   -2.469696   -0.106914
 C         12.950802   -3.825292   -0.146311
 C         14.291857   -4.184452   -0.129997
 C         15.289366   -3.203682   -0.075306
 C         14.993228   -1.845435   -0.036492
 C         13.644809   -1.468945   -0.052929
 C         12.981639   -0.141486   -0.023541
 C         13.662726    1.074568    0.025847
 C         15.084308    1.176243    0.056422
 N         16.242928    1.310911    0.082909
 C         13.036889    2.355031    0.049857
 N         12.577774    3.427824    0.070130
 H         10.892653    1.623539    0.002649
 H         12.171195   -4.578422   -0.187840
 H         15.815884   -1.144934    0.004583
 C         -5.785792   -3.252356   -1.316691
 C         -5.118792   -2.822388   -2.467930
 C         -5.225320   -3.534445   -3.665228
 C         -6.002111   -4.693485   -3.756317
 C         -6.677509   -5.115702   -2.601129
 C         -6.572183   -4.412302   -1.404695
 H         -4.513467   -1.921793   -2.443468
 H         -4.692453   -3.176040   -4.542867
 H         -7.296206   -6.009480   -2.638290
 H         -7.102208   -4.774189   -0.528431
 C         -5.589111   -3.338036    1.246745
 C         -6.212517   -3.025744    2.461255
 C         -5.986357   -3.797377    3.601067
 C         -5.129234   -4.904384    3.573639
 C         -4.499163   -5.206826    2.359510
 C         -4.723784   -4.441165    1.216174
 H         -6.882499   -2.174227    2.525783
 H         -6.488635   -3.531589    4.528429
 H         -3.822601   -6.056506    2.303496
 H         -4.229915   -4.717399    0.289429
 C          5.588960    3.338015   -1.246461
 C          6.212222    3.025704   -2.461041
 C          5.985936    3.797325   -3.600835
 C          5.128824    4.904338   -3.573319
 C          4.498895    5.206797   -2.359122
 C          4.723641    4.441147   -1.215803
 H          6.882190    2.174180   -2.525636
 H          6.488104    3.531521   -4.528252
 H          3.822344    6.056482   -2.303040
 H          4.229876    4.717390   -0.289005
 C          5.785936    3.252362    1.316951
 C          5.119051    2.822434    2.468265
 C          5.225713    3.534524    3.665538
 C          6.002532    4.693547    3.756518
 C          6.677808    5.115735    2.601242
 C          6.572349    4.412306    1.404842
 H          4.513703    1.921853    2.443889
 H          4.692925    3.176155    4.543239
 H          7.296510    6.009514    2.638311
 H          7.102273    4.774172    0.528509
 C         -6.099357   -5.478032   -5.043262
 H         -5.765227   -4.884281   -5.899835
 H         -5.476704   -6.381569   -5.005249
 C         -4.913229   -5.757871    4.800857
 H         -3.914067   -6.205961    4.806034
 H         -5.030928   -5.174388    5.719905
 C          4.912688    5.757813   -4.800523
 H          5.030133    5.174285   -5.719575
 H          3.913583    6.206031   -4.805519
 C          6.100007    5.478097    5.043445
 H          5.478568    6.382445    5.004964
 H          5.764611    4.884856    5.899872
 H          7.128444    5.803391    5.236307
 H          5.638336    6.580956   -4.843068
 H         -5.638777   -6.581110    4.843231
 H         -7.127480   -5.804641   -5.235534
 C          1.156972   -2.684699   -0.233310
 C          1.770819   -3.241338   -1.329339
 S          1.142446   -3.832152    1.099868
 C          2.223819   -4.575136   -1.110094
 H          1.880814   -2.713354   -2.270609
 C          1.965484   -5.046865    0.151004
 H          2.724211   -5.170427   -1.866809
 C         -1.156982    2.684685    0.233927
 C         -1.770862    3.241301    1.329950
 S         -1.142410    3.832170   -1.099223
 C         -2.223855    4.575103    1.110720
 H         -1.880883    2.713297    2.271206
 C         -1.965482    5.046860   -0.150360
 H         -2.724269    5.170378    1.867434
 C          2.299566   -6.389460    0.730284
 H          2.812373   -6.997001   -0.021272
 H          2.957942   -6.304578    1.602742
 H          1.400809   -6.931028    1.047951
 C         -2.299547    6.389467   -0.729621
 H         -2.957901    6.304605   -1.602098
 H         -2.812374    6.996994    0.021935
 H         -1.400782    6.931041   -1.047253
 C         -3.292816   -1.268677    0.050846
 C          3.292808    1.268664   -0.050339
 C          2.803993   -0.059809   -0.124982
 C         -2.804005    0.059796    0.125534
 S          1.996809    2.441968    0.038700
 S         -1.996814   -2.441980   -0.038139
 F         16.568568   -3.605049   -0.060887
 F         14.660632   -5.472929   -0.165623
 F        -14.660638    5.472944    0.164583
 F        -16.568561    3.605070    0.059494
