       132
S0: Total Energy = -5756.13421615
 C         -7.054448   -1.681458   -0.023050
 C         -6.657094   -0.329859   -0.007084
 C         -5.255509   -0.190930    0.003300
 C         -4.582423   -1.427588   -0.004444
 C         -3.178702   -1.285417   -0.012864
 C         -2.805009    0.046789   -0.001212
 C         -1.366981    0.186206    0.002683
 C         -0.828215   -1.127445    0.014767
 C          0.544012   -1.321845    0.009004
 S         -5.687277   -2.794280   -0.020584
 S         -4.143383    1.165297    0.015031
 C         -1.948447   -2.195020    0.008508
 H          0.972716   -2.319380    0.011376
 C          7.054448    1.681460    0.023055
 C          6.657093    0.329861    0.007092
 C          5.255509    0.190933   -0.003292
 C          4.582423    1.427591    0.004448
 C          3.178702    1.285420    0.012866
 C          2.805009   -0.046786    0.001216
 C          1.366981   -0.186203   -0.002680
 C          0.828215    1.127449   -0.014764
 C         -0.544012    1.321848   -0.009001
 S          5.687278    2.794283    0.020584
 S          4.143382   -1.165294   -0.015024
 C          1.948447    2.195024   -0.008507
 H         -0.972716    2.319384   -0.011373
 C        -10.556730   -0.632401   -0.043248
 C        -11.520909    0.356758   -0.044069
 C        -11.262475    1.813783   -0.020115
 O        -10.172188    2.377868   -0.001258
 C        -12.580473    2.484180   -0.022165
 C        -12.846167    3.846424   -0.002903
 C        -14.181744    4.255402   -0.008969
 C        -15.207141    3.302343   -0.033895
 C        -14.933996    1.930281   -0.053503
 C        -13.598307    1.512539   -0.047585
 C        -12.972630    0.163311   -0.064534
 C        -13.680393   -1.028281   -0.097331
 C        -15.106866   -1.101341   -0.114255
 N        -16.265896   -1.222274   -0.129099
 C        -13.082212   -2.325025   -0.120270
 N        -12.643376   -3.404904   -0.140555
 H        -10.926465   -1.651663   -0.057086
 H        -12.028349    4.560257    0.016272
 H        -15.757107    1.229357   -0.072373
 C         10.556730    0.632400    0.043255
 C         11.520908   -0.356761    0.044078
 C         11.262473   -1.813784    0.020107
 O         10.172184   -2.377869    0.001259
 C         12.580470   -2.484183    0.022126
 C         12.846163   -3.846427    0.002835
 C         14.181740   -4.255405    0.008869
 C         15.207138   -3.302347    0.033794
 C         14.933994   -1.930286    0.053434
 C         13.598305   -1.512543    0.047548
 C         12.972629   -0.163315    0.064539
 C         13.680394    1.028274    0.097377
 C         15.106868    1.101331    0.114286
 N         16.265899    1.222256    0.129121
 C         13.082215    2.325018    0.120378
 N         12.643380    3.404896    0.140709
 H         10.926466    1.651662    0.057090
 H         12.028345   -4.560258   -0.016339
 H         15.757106   -1.229362    0.072301
 C         -1.990790   -3.040587    1.301579
 C         -2.695870   -4.253190    1.332777
 C         -2.818304   -4.983629    2.513928
 C         -2.243005   -4.535090    3.709809
 C         -1.548818   -3.319873    3.677559
 C         -1.424436   -2.584325    2.498474
 H         -3.144563   -4.642245    0.423719
 H         -3.371702   -5.919978    2.502866
 H         -1.095674   -2.937800    4.589595
 H         -0.881815   -1.644890    2.519408
 C         -1.800331   -3.052545   -1.265936
 C         -0.921653   -4.146686   -1.289049
 C         -0.714205   -4.876198   -2.457816
 C         -1.376321   -4.547724   -3.648939
 C         -2.247507   -3.453217   -3.623843
 C         -2.456193   -2.717112   -2.456191
 H         -0.400888   -4.441382   -0.382921
 H         -0.025806   -5.718346   -2.442164
 H         -2.774942   -3.167270   -4.531083
 H         -3.134424   -1.869984   -2.482337
 C          1.800331    3.052551    1.265935
 C          0.921652    4.146690    1.289048
 C          0.714204    4.876203    2.457814
 C          1.376322    4.547733    3.648936
 C          2.247510    3.453227    3.623841
 C          2.456196    2.717120    2.456190
 H          0.400885    4.441384    0.382920
 H          0.025804    5.718351    2.442163
 H          2.774946    3.167280    4.531081
 H          3.134427    1.869993    2.482337
 C          1.990790    3.040588   -1.301580
 C          2.695875    4.253188   -1.332782
 C          2.818310    4.983624   -2.513935
 C          2.243005    4.535085   -3.709813
 C          1.548812    3.319872   -3.677559
 C          1.424431    2.584327   -2.498473
 H          3.144574    4.642242   -0.423726
 H          3.371712    5.919970   -2.502876
 H          1.095664    2.937800   -4.589593
 H          0.881805    1.644894   -2.519403
 C         -2.347304   -5.345881    4.979957
 H         -1.544225   -6.092469    5.041562
 H         -2.268961   -4.710211    5.867980
 C         -1.175140   -5.363472   -4.904194
 H         -1.402069   -4.779133   -5.801758
 H         -0.144808   -5.726384   -4.985076
 C          1.175146    5.363483    4.904191
 H          0.144844    5.726491    4.985020
 H          1.401971    4.779111    5.801761
 C          2.347305    5.345874   -4.979963
 H          2.268905    4.710209   -5.867985
 H          1.544261    6.092501   -5.041542
 H         -3.297343   -5.888342    5.031672
 H         -1.830113   -6.244882   -4.913981
 H          1.830203    6.244830    4.914027
 H          3.297369    5.888290   -5.031705
 S          8.013815   -0.754529    0.005670
 S         -8.013817    0.754530   -0.005655
 C          8.437316    1.848260    0.033726
 C         -8.437316   -1.848259   -0.033722
 H          8.950901    2.803209    0.046819
 H         -8.950899   -2.803209   -0.046818
 C          9.139486    0.630294    0.028125
 C         -9.139486   -0.630294   -0.028118
 H        -16.242258    3.630788   -0.038217
 H        -14.428357    5.312830    0.005617
 H         14.428352   -5.312833   -0.005741
 H         16.242255   -3.630793    0.038090
       132
T1: Total Energy = -5756.08868528
 C          7.024351   -1.701336    0.020935
 C          6.619876   -0.341969    0.001312
 C          5.234948   -0.204073   -0.009424
 C          4.547476   -1.453608    0.001585
 C          3.165185   -1.310681    0.008792
 C          2.780629    0.043682   -0.007713
 C          1.373027    0.181185   -0.007444
 C          0.816024   -1.143983   -0.012210
 C         -0.544897   -1.330107   -0.001286
 S          5.660005   -2.820516    0.020325
 S          4.128494    1.162604   -0.025882
 C          1.932268   -2.215719   -0.006187
 H         -0.981789   -2.323824    0.002349
 C         -7.024352    1.701338   -0.020948
 C         -6.619876    0.341971   -0.001325
 C         -5.234948    0.204076    0.009413
 C         -4.547476    1.453611   -0.001594
 C         -3.165185    1.310684   -0.008797
 C         -2.780628   -0.043679    0.007707
 C         -1.373027   -0.181182    0.007441
 C         -0.816024    1.143986    0.012207
 C          0.544897    1.330110    0.001281
 S         -5.660005    2.820518   -0.020337
 S         -4.128493   -1.162601    0.025872
 C         -1.932267    2.215722    0.006186
 H          0.981789    2.323827   -0.002354
 C         10.521155   -0.644407    0.042044
 C         11.488015    0.354435    0.042433
 C         11.223734    1.811845    0.017458
 O         10.129945    2.370200   -0.004490
 C         12.537717    2.489626    0.023413
 C         12.798740    3.851867    0.005728
 C         14.134049    4.266072    0.016077
 C         15.160214    3.315551    0.043600
 C         14.890549    1.941157    0.061506
 C         13.557221    1.519404    0.051252
 C         12.931846    0.168903    0.065076
 C         13.646425   -1.026718    0.096554
 C         15.071285   -1.093722    0.115768
 N         16.231719   -1.208975    0.132401
 C         13.056003   -2.325047    0.114822
 N         12.625493   -3.409281    0.131268
 H         10.895794   -1.661258    0.058240
 H         11.978766    4.563327   -0.015485
 H         15.715707    1.242621    0.082598
 C        -10.521155    0.644407   -0.042053
 C        -11.488014   -0.354436   -0.042437
 C        -11.223731   -1.811845   -0.017453
 O        -10.129942   -2.370198    0.004491
 C        -12.537713   -2.489627   -0.023394
 C        -12.798735   -3.851868   -0.005695
 C        -14.134044   -4.266075   -0.016030
 C        -15.160209   -3.315556   -0.043554
 C        -14.890546   -1.941162   -0.061474
 C        -13.557219   -1.519407   -0.051235
 C        -12.931846   -0.168906   -0.065075
 C        -13.646425    1.026714   -0.096563
 C        -15.071286    1.093717   -0.115765
 N        -16.231721    1.208967   -0.132387
 C        -13.056005    2.325043   -0.114854
 N        -12.625496    3.409278   -0.131322
 H        -10.895795    1.661258   -0.058251
 H        -11.978760   -4.563328    0.015518
 H        -15.715705   -1.242627   -0.082565
 C          1.971537   -3.060580   -1.299748
 C          2.665946   -4.279338   -1.329482
 C          2.785991   -5.008255   -2.511542
 C          2.219560   -4.551914   -3.708963
 C          1.536907   -3.330162   -3.677671
 C          1.415411   -2.595378   -2.497930
 H          3.107519   -4.674224   -0.419587
 H          3.330422   -5.949702   -2.500146
 H          1.091752   -2.941931   -4.590901
 H          0.882487   -1.650363   -2.520479
 C          1.784527   -3.068331    1.271363
 C          0.908039   -4.164069    1.296639
 C          0.699200   -4.887758    2.468621
 C          1.357360   -4.551482    3.659925
 C          2.225687   -3.454735    3.632150
 C          2.435388   -2.723694    2.461612
 H          0.390812   -4.464952    0.390572
 H          0.013258   -5.731821    2.455308
 H          2.749581   -3.162701    4.539364
 H          3.111561   -1.874801    2.486514
 C         -1.784526    3.068338   -1.271361
 C         -0.908023    4.164062   -1.296641
 C         -0.699183    4.887752   -2.468624
 C         -1.357358    4.551490   -3.659922
 C         -2.225700    3.454754   -3.632143
 C         -2.435401    2.723713   -2.461606
 H         -0.390781    4.464935   -0.390578
 H         -0.013228    5.731805   -2.455315
 H         -2.749606    3.162729   -4.539354
 H         -3.111586    1.874829   -2.486505
 C         -1.971538    3.060579    1.299750
 C         -2.665956    4.279332    1.329489
 C         -2.786003    5.008245    2.511552
 C         -2.219566    4.551905    3.708970
 C         -1.536904    3.330158    3.677672
 C         -1.415406    2.595378    2.497929
 H         -3.107534    4.674218    0.419596
 H         -3.330441    5.949688    2.500159
 H         -1.091744    2.941928    4.590900
 H         -0.882475    1.650366    2.520474
 C          2.321826   -5.361150   -4.980008
 H          1.513056   -6.101221   -5.044705
 H          2.251009   -4.723482   -5.867130
 C          1.154669   -5.361384    4.918502
 H          1.377522   -4.772125    5.813774
 H          0.125252   -5.726980    4.997915
 C         -1.154671    5.361393   -4.918499
 H         -0.125278    5.727066   -4.997869
 H         -1.377438    4.772107   -5.813775
 C         -2.321835    5.361137    4.980017
 H         -2.250963    4.723473    5.867137
 H         -1.513100    6.101248    5.044690
 H          3.267702   -5.910879   -5.029346
 H          1.812338   -6.240612    4.933838
 H         -1.812408    6.240570   -4.933875
 H         -3.267737    5.910820    5.029381
 S         -7.987456   -0.745394    0.001390
 S          7.987457    0.745396   -0.001401
 C         -8.398697    1.869389   -0.033589
 C          8.398697   -1.869388    0.033574
 H         -8.913875    2.822931   -0.049595
 H          8.913874   -2.822930    0.049578
 C         -9.108834    0.643134   -0.025844
 C          9.108834   -0.643133    0.025831
 H         16.194889    3.645892    0.051403
 H         14.377458    5.324291    0.002843
 H        -14.377451   -5.324294   -0.002785
 H        -16.194884   -3.645898   -0.051346
       132
S1: Total Energy = -5756.07339728
 C          7.027804   -1.697087    0.012267
 C          6.627639   -0.343079   -0.006291
 C          5.234797   -0.205191   -0.016866
 C          4.553225   -1.450454   -0.006992
 C          3.164665   -1.306651    0.001249
 C          2.783456    0.043293   -0.012455
 C          1.371593    0.181896   -0.009144
 C          0.816625   -1.142493   -0.016722
 C         -0.545856   -1.329495   -0.004300
 S          5.665059   -2.815787    0.010740
 S          4.130045    1.160084   -0.030423
 C          1.933416   -2.212572   -0.014635
 H         -0.982208   -2.323360   -0.003250
 C         -7.027803    1.697088   -0.012269
 C         -6.627639    0.343080    0.006304
 C         -5.234797    0.205191    0.016877
 C         -4.553225    1.450454    0.006996
 C         -3.164665    1.306650   -0.001234
 C         -2.783456   -0.043293    0.012477
 C         -1.371593   -0.181896    0.009169
 C         -0.816625    1.142492    0.016745
 C          0.545856    1.329495    0.004326
 S         -5.665059    2.815787   -0.010752
 S         -4.130045   -1.160085    0.030439
 C         -1.933416    2.212572    0.014651
 H          0.982208    2.323360    0.003276
 C         10.533094   -0.643895    0.039366
 C         11.495204    0.351877    0.041390
 C         11.228931    1.810093    0.008615
 O         10.134047    2.366015   -0.018910
 C         12.541464    2.488646    0.013916
 C         12.800728    3.850957   -0.011354
 C         14.135507    4.267658   -0.000198
 C         15.163004    3.318149    0.035688
 C         14.896104    1.943816    0.061339
 C         13.562612    1.518249    0.050387
 C         12.943366    0.169455    0.071181
 C         13.658449   -1.026968    0.115747
 C         15.082645   -1.093435    0.141906
 N         16.243547   -1.207245    0.164748
 C         13.067869   -2.324241    0.143433
 N         12.635604   -3.408152    0.168009
 H         10.906620   -1.661296    0.057780
 H         11.979639    4.560968   -0.038963
 H         15.722165    1.246537    0.088499
 C        -10.533093    0.643896   -0.039379
 C        -11.495204   -0.351875   -0.041393
 C        -11.228931   -1.810091   -0.008591
 O        -10.134047   -2.366012    0.018954
 C        -12.541464   -2.488644   -0.013902
 C        -12.800727   -3.850955    0.011383
 C        -14.135506   -4.267656    0.000216
 C        -15.163003   -3.318148   -0.035696
 C        -14.896103   -1.943815   -0.061364
 C        -13.562611   -1.518248   -0.050399
 C        -12.943365   -0.169455   -0.071210
 C        -13.658447    1.026968   -0.115807
 C        -15.082643    1.093434   -0.141992
 N        -16.243545    1.207243   -0.164856
 C        -13.067867    2.324241   -0.143506
 N        -12.635601    3.408150   -0.168125
 H        -10.906619    1.661297   -0.057814
 H        -11.979639   -4.560966    0.039012
 H        -15.722164   -1.246537   -0.088546
 C          1.973475   -3.052475   -1.311258
 C          2.664901   -4.272816   -1.344482
 C          2.785578   -4.996733   -2.529475
 C          2.222925   -4.533660   -3.726193
 C          1.543543   -3.310102   -3.691278
 C          1.421682   -2.580084   -2.508773
 H          3.103808   -4.672555   -0.435473
 H          3.327609   -5.939554   -2.521073
 H          1.101739   -2.916633   -4.603847
 H          0.892171   -1.633026   -2.528820
 C          1.786509   -3.067625    1.261147
 C          0.912803   -4.165609    1.284239
 C          0.705501   -4.891342    2.455187
 C          1.362499   -4.554963    3.647186
 C          2.227944   -3.455823    3.621405
 C          2.435934   -2.722467    2.452099
 H          0.396822   -4.466699    0.377530
 H          0.021832   -5.737187    2.440545
 H          2.750769   -3.163769    4.529186
 H          3.109616   -1.871595    2.478486
 C         -1.786504    3.067622   -1.261131
 C         -0.912802    4.165609   -1.284220
 C         -0.705495    4.891340   -2.455170
 C         -1.362485    4.554956   -3.647171
 C         -2.227926    3.455812   -3.621393
 C         -2.435921    2.722459   -2.452086
 H         -0.396826    4.466702   -0.377509
 H         -0.021828    5.737186   -2.440526
 H         -2.750744    3.163753   -4.529176
 H         -3.109599    1.871584   -2.478475
 C         -1.973481    3.052477    1.311274
 C         -2.664913    4.272814    1.344495
 C         -2.785595    4.996733    2.529485
 C         -2.222942    4.533665    3.726205
 C         -1.543552    3.310111    3.691293
 C         -1.421686    2.580091    2.508790
 H         -3.103821    4.672549    0.435483
 H         -3.327631    5.939551    2.521081
 H         -1.101748    2.916646    4.603863
 H         -0.892170    1.633036    2.528839
 C          2.326032   -5.337537   -5.000452
 H          1.515520   -6.075255   -5.069926
 H          2.258662   -4.695873   -5.884928
 C          1.161594   -5.367251    4.904427
 H          1.382479   -4.778755    5.800659
 H          0.133241   -5.735988    4.982797
 C         -1.161578    5.367242   -4.904414
 H         -0.133255    5.736074   -4.982727
 H         -1.382354    4.778709   -5.800649
 C         -2.326055    5.337544    5.000462
 H         -2.258634    4.695889    5.884940
 H         -1.515577    6.075302    5.069912
 H          3.270613   -5.889414   -5.050023
 H          1.821859   -6.244532    4.918476
 H         -1.821926    6.244459   -4.918518
 H         -3.270661    5.889377    5.050053
 S         -7.992550   -0.743027    0.008463
 S          7.992550    0.743028   -0.008443
 C         -8.409567    1.865677   -0.025700
 C          8.409568   -1.865676    0.025690
 H         -8.923232    2.820044   -0.042118
 H          8.923233   -2.820043    0.042092
 C         -9.113475    0.644712   -0.019125
 C          9.113475   -0.644711    0.019124
 H         16.197151    3.650392    0.043943
 H         14.377525    5.326100   -0.019245
 H        -14.377525   -5.326098    0.019274
 H        -16.197150   -3.650391   -0.043960
