       132
S0: Total Energy = -5954.59387080
 C         -7.017837   -1.824385   -0.022773
 C         -6.647601   -0.464344   -0.004990
 C         -5.249599   -0.297759    0.005757
 C         -4.551657   -1.521095   -0.003952
 C         -3.151437   -1.350621   -0.012563
 C         -2.805009   -0.010696    0.001095
 C         -1.370296    0.158152    0.004168
 C         -0.804804   -1.144419    0.013786
 C          0.571047   -1.310814    0.006485
 S         -5.628592   -2.909907   -0.021857
 S         -4.165211    1.080291    0.019621
 C         -1.902813   -2.234833    0.006650
 H          1.020139   -2.299444    0.007034
 C          7.017834    1.824376    0.022768
 C          6.647597    0.464336    0.004989
 C          5.249594    0.297753   -0.005770
 C          4.551654    1.521090    0.003929
 C          3.151434    1.350618    0.012534
 C          2.805005    0.010693   -0.001122
 C          1.370292   -0.158154   -0.004198
 C          0.804800    1.144416   -0.013819
 C         -0.571052    1.310811   -0.006517
 S          5.628591    2.909900    0.021833
 S          4.165206   -1.080296   -0.019640
 C          1.902809    2.234830   -0.006685
 H         -1.020143    2.299441   -0.007065
 C        -10.538811   -0.848182   -0.042112
 C        -11.529432    0.116637   -0.042952
 C        -11.300899    1.579343   -0.020626
 O        -10.219384    2.157119   -0.001067
 C        -12.636867    2.213595   -0.025624
 C        -12.984718    3.556224   -0.009971
 C        -14.324091    3.938593   -0.017734
 C        -15.307380    2.948084   -0.041547
 C        -14.982862    1.585716   -0.058096
 C        -13.635185    1.217894   -0.050177
 C        -12.971401   -0.115232   -0.063658
 C        -13.649835   -1.324645   -0.093459
 C        -15.073243   -1.439116   -0.112385
 N        -16.227833   -1.597168   -0.128915
 C        -13.018451   -2.605532   -0.110616
 N        -12.554626   -3.675015   -0.125888
 H        -10.884939   -1.875579   -0.056289
 H        -15.779691    0.856234   -0.076243
 C         10.538807    0.848169    0.042137
 C         11.529434   -0.116645    0.042995
 C         11.300915   -1.579354    0.020668
 O         10.219406   -2.157142    0.001106
 C         12.636890   -2.213593    0.025663
 C         12.984753   -3.556219    0.010003
 C         14.324130   -3.938574    0.017759
 C         15.307409   -2.948056    0.041571
 C         14.982878   -1.585692    0.058128
 C         13.635198   -1.217883    0.050217
 C         12.971400    0.115237    0.063711
 C         13.649819    1.324656    0.093537
 C         15.073225    1.439147    0.112463
 N         16.227813    1.597212    0.128994
 C         13.018414    2.605533    0.110726
 N         12.554565    3.675006    0.126017
 H         10.884933    1.875567    0.056308
 H         15.779700   -0.856202    0.076273
 C         -1.927156   -3.082927    1.298563
 C         -2.609465   -4.308548    1.328806
 C         -2.716451   -5.043129    2.508913
 C         -2.147685   -4.585909    3.704705
 C         -1.476324   -3.357859    3.673432
 C         -1.367552   -2.618110    2.495359
 H         -3.052080   -4.704602    0.419793
 H         -3.252183   -5.989670    2.497055
 H         -1.028889   -2.968958    4.585379
 H         -0.842387   -1.668828    2.517169
 C         -1.738125   -3.087261   -1.269280
 C         -0.838878   -4.164531   -1.294046
 C         -0.617589   -4.888071   -2.464045
 C         -1.285722   -4.570199   -3.654741
 C         -2.177311   -3.492203   -3.628030
 C         -2.399952   -2.762097   -2.459139
 H         -0.312593   -4.450938   -0.388471
 H          0.086625   -5.717033   -2.449663
 H         -2.709785   -3.214605   -4.534910
 H         -3.093866   -1.927711   -2.484181
 C          1.738120    3.087264    1.269240
 C          0.838884    4.164543    1.293995
 C          0.617593    4.888090    2.463991
 C          1.285715    4.570217    3.654692
 C          2.177294    3.492211    3.627992
 C          2.399936    2.762098    2.459106
 H          0.312608    4.450951    0.388416
 H         -0.086612    5.717058    2.449601
 H          2.709759    3.214610    4.534877
 H          3.093841    1.927706    2.484155
 C          1.927155    3.082919   -1.298602
 C          2.609453    4.308546   -1.328843
 C          2.716441    5.043124   -2.508952
 C          2.147688    4.585895   -3.704746
 C          1.476338    3.357840   -3.673475
 C          1.367563    2.618094   -2.495401
 H          3.052057    4.704607   -0.419828
 H          3.252164    5.989671   -2.497093
 H          1.028912    2.968932   -4.585424
 H          0.842406    1.668807   -2.517211
 C         -2.234691   -5.400693    4.973588
 H         -1.417792   -6.132355    5.032240
 H         -2.166342   -4.765222    5.862557
 C         -1.069080   -5.379974   -4.911280
 H         -1.307348   -4.798684   -5.807864
 H         -0.032038   -5.723061   -4.992651
 C          1.069076    5.379999    4.911226
 H          0.032065    5.723192    4.992536
 H          1.307228    4.798674    5.807820
 C          2.234697    5.400677   -4.973631
 H          2.166310    4.765208   -5.862599
 H          1.417823    6.132367   -5.032268
 H         -3.174385   -5.960810    5.025925
 H         -1.707095   -6.273713   -4.922238
 H          1.707184    6.273671    4.922237
 H          3.174409    5.960761   -5.025987
 S          8.025583   -0.592882    0.002961
 S         -8.025590    0.592871   -0.002941
 C          8.396049    2.018826    0.033803
 C         -8.396051   -2.018837   -0.033798
 H          8.890031    2.983927    0.047941
 H         -8.890031   -2.983940   -0.047938
 C          9.123471    0.814477    0.027059
 C         -9.123475   -0.814490   -0.027044
 H        -16.352403    3.241731   -0.047388
 H        -14.579090    4.992831   -0.005232
 H         14.579139   -4.992811    0.005252
 H         16.352435   -3.241693    0.047406
 F        -12.033477    4.501100    0.012690
 F         12.033521   -4.501104   -0.012655
       132
T1: Total Energy = -5954.54917413
 C          6.987243   -1.845174    0.019779
 C          6.610778   -0.477913   -0.002591
 C          5.228666   -0.312169   -0.014220
 C          4.516361   -1.547478   -0.000646
 C          3.136981   -1.376100    0.006773
 C          2.780955   -0.014254   -0.012123
 C          1.376020    0.152682   -0.010058
 C          0.792058   -1.160652   -0.011758
 C         -0.572580   -1.318764    0.001825
 S          5.600656   -2.936674    0.020988
 S          4.150875    1.076144   -0.033654
 C          1.885666   -2.255350   -0.005585
 H         -1.029805   -2.303381    0.007689
 C         -6.987244    1.845177   -0.019753
 C         -6.610779    0.477917    0.002628
 C         -5.228668    0.312173    0.014288
 C         -4.516363    1.547481    0.000725
 C         -3.136982    1.376103   -0.006671
 C         -2.780956    0.014258    0.012230
 C         -1.376022   -0.152679    0.010174
 C         -0.792060    1.160654    0.011875
 C          0.572578    1.318766   -0.001706
 S         -5.600656    2.936678   -0.020930
 S         -4.150878   -1.076140    0.033747
 C         -1.885667    2.255353    0.005701
 H          1.029803    2.303383   -0.007570
 C         10.504461   -0.861560    0.041267
 C         11.497128    0.112667    0.041615
 C         11.261516    1.576528    0.016911
 O         10.175985    2.147336   -0.006568
 C         12.592676    2.219171    0.025676
 C         12.934933    3.562134    0.010696
 C         14.273434    3.951217    0.023230
 C         15.258417    2.963668    0.051153
 C         14.938704    1.598791    0.066951
 C         13.593373    1.225081    0.054098
 C         12.931909   -0.109173    0.065283
 C         13.618072   -1.323218    0.095033
 C         15.039827   -1.430701    0.116410
 N         16.196192   -1.582481    0.134876
 C         12.994882   -2.605766    0.108650
 N         12.539978   -3.680189    0.121138
 H         10.855492   -1.886670    0.058662
 H         15.738320    0.872357    0.088527
 C        -10.504461    0.861563   -0.041345
 C        -11.497127   -0.112665   -0.041730
 C        -11.261513   -1.576526   -0.017025
 O        -10.175982   -2.147332    0.006493
 C        -12.592671   -2.219171   -0.025850
 C        -12.934927   -3.562135   -0.010893
 C        -14.273427   -3.951221   -0.023490
 C        -15.258410   -2.963674   -0.051453
 C        -14.938699   -1.598796   -0.067227
 C        -13.593369   -1.225083   -0.054310
 C        -12.931907    0.109172   -0.065453
 C        -13.618071    1.323217   -0.095212
 C        -15.039826    1.430696   -0.116654
 N        -16.196190    1.582475   -0.135172
 C        -12.994884    2.605766   -0.108769
 N        -12.539981    3.680191   -0.121211
 H        -10.855492    1.886673   -0.058752
 H        -15.738315   -0.872363   -0.088836
 C          1.906349   -3.102225   -1.298335
 C          2.577998   -4.333714   -1.327772
 C          2.682045   -5.066343   -2.509067
 C          2.121610   -4.601154   -3.705982
 C          1.461837   -3.366842   -3.674990
 C          1.356519   -2.628264   -2.495999
 H          3.013984   -4.735675   -0.418287
 H          3.208835   -6.017749   -2.497434
 H          1.022008   -2.971678   -4.587799
 H          0.841139   -1.673582   -2.518940
 C          1.721897   -3.103152    1.273254
 C          0.825068   -4.182259    1.300097
 C          0.602897   -4.900210    2.473212
 C          1.267368   -4.574509    3.664003
 C          2.155875   -3.493997    3.634670
 C          2.379056   -2.768705    2.463013
 H          0.302104   -4.474840    0.394635
 H         -0.098709   -5.731281    2.461145
 H          2.685013   -3.210293    4.541471
 H          3.070704   -1.932319    2.486875
 C         -1.721889    3.103162   -1.273132
 C         -0.825036    4.182249   -1.299975
 C         -0.602858    4.900203   -2.473087
 C         -1.267345    4.574525   -3.663875
 C         -2.155876    3.494032   -3.634542
 C         -2.379064    2.768737   -2.462889
 H         -0.302057    4.474811   -0.394515
 H          0.098768    5.731257   -2.461020
 H         -2.685025    3.210345   -4.541342
 H         -3.070729    1.932366   -2.486751
 C         -1.906359    3.102219    1.298457
 C         -2.578027    4.333698    1.327905
 C         -2.682081    5.066317    2.509204
 C         -2.121637    4.601128    3.706116
 C         -1.461846    3.366826    3.675113
 C         -1.356519    2.628258    2.496117
 H         -3.014021    4.735659    0.418423
 H         -3.208885    6.017716    2.497579
 H         -1.022008    2.971662    4.587918
 H         -0.841125    1.673583    2.519050
 C          2.206009   -5.413954   -4.976045
 H          1.383817   -6.139358   -5.037335
 H          2.144250   -4.776401   -5.863900
 C          1.049755   -5.378704    4.923730
 H          1.284443   -4.792669    5.818069
 H          0.013582   -5.724439    5.003945
 C         -1.049726    5.378724   -4.923598
 H         -0.013573    5.724526   -5.003769
 H         -1.284336    4.792666   -5.817943
 C         -2.206046    5.413919    4.976183
 H         -2.144226    4.776366    5.864034
 H         -1.383894    6.139369    5.037453
 H          3.141626   -5.980824   -5.026844
 H          1.690447   -6.270357    4.939730
 H         -1.690478    6.270333   -4.939636
 H         -3.141694    5.980736    5.027010
 S         -7.999852   -0.581586    0.005787
 S          7.999850    0.581590   -0.005778
 C         -8.357879    2.040958   -0.033541
 C          8.357878   -2.040954    0.033528
 H         -8.853267    3.004781   -0.051408
 H          8.853267   -3.004777    0.051378
 C         -9.092730    0.829151   -0.024316
 C          9.092729   -0.829147    0.024284
 H         16.302788    3.260113    0.060931
 H         14.524321    5.006389    0.011223
 H        -14.524312   -5.006393   -0.011501
 H        -16.302780   -3.260120   -0.061280
 F         11.979532    4.504168   -0.015921
 F        -11.979525   -4.504168    0.015762
       132
S1: Total Energy = -5954.53445980
 C          6.990740   -1.840157    0.011653
 C          6.618211   -0.478304   -0.009437
 C          5.228266   -0.312576   -0.020947
 C          4.521993   -1.543978   -0.008782
 C          3.136586   -1.371897   -0.000496
 C          2.783370   -0.014226   -0.016457
 C          1.374721    0.153597   -0.011607
 C          0.792678   -1.159343   -0.016330
 C         -0.573257   -1.318414   -0.001504
 S          5.605887   -2.931496    0.011699
 S          4.152026    1.074349   -0.037426
 C          1.887061   -2.252263   -0.014095
 H         -1.029932   -2.303206    0.001634
 C         -6.990739    1.840161   -0.011674
 C         -6.618211    0.478307    0.009394
 C         -5.228265    0.312578    0.020884
 C         -4.521992    1.543981    0.008722
 C         -3.136586    1.371900    0.000423
 C         -2.783369    0.014229    0.016375
 C         -1.374720   -0.153595    0.011521
 C         -0.792677    1.159346    0.016245
 C          0.573257    1.318417    0.001417
 S         -5.605886    2.931499   -0.011734
 S         -4.152025   -1.074346    0.037345
 C         -1.887060    2.252266    0.014019
 H          1.029932    2.303208   -0.001720
 C         10.516103   -0.860016    0.039176
 C         11.503687    0.110937    0.041682
 C         11.266576    1.575564    0.010734
 O         10.180019    2.144295   -0.017637
 C         12.596529    2.218368    0.019653
 C         12.937593    3.561468   -0.001122
 C         14.275558    3.952635    0.012487
 C         15.261856    2.965623    0.047517
 C         14.944692    1.601044    0.069363
 C         13.598751    1.223591    0.055433
 C         12.943795   -0.108516    0.072006
 C         13.629520   -1.323464    0.113067
 C         15.050664   -1.431036    0.141324
 N         16.207510   -1.581342    0.165902
 C         13.005618   -2.604833    0.134290
 N         12.547872   -3.678458    0.153462
 H         10.865937   -1.885739    0.057952
 H         15.745116    0.875614    0.096069
 C        -10.516103    0.860020   -0.039116
 C        -11.503687   -0.110934   -0.041610
 C        -11.266573   -1.575563   -0.010713
 O        -10.180014   -2.144292    0.017587
 C        -12.596525   -2.218367   -0.019591
 C        -12.937587   -3.561468    0.001158
 C        -14.275553   -3.952636   -0.012398
 C        -15.261854   -2.965624   -0.047348
 C        -14.944692   -1.601044   -0.069168
 C        -13.598751   -1.223590   -0.055295
 C        -12.943797    0.108518   -0.071859
 C        -13.629525    1.323466   -0.112860
 C        -15.050670    1.431036   -0.141055
 N        -16.207519    1.581341   -0.165576
 C        -13.005627    2.604836   -0.134095
 N        -12.547886    3.678463   -0.153304
 H        -10.865938    1.885742   -0.057854
 H        -15.745117   -0.875614   -0.095812
 C          1.908971   -3.094038   -1.310003
 C          2.577125   -4.327323   -1.342796
 C          2.682156   -5.054839   -2.527088
 C          2.126392   -4.582583   -3.723509
 C          1.470412   -3.346258   -3.689034
 C          1.364365   -2.612583   -2.507213
 H          3.009763   -4.734391   -0.434038
 H          3.206120   -6.007797   -2.518338
 H          1.034630   -2.945598   -4.601344
 H          0.852794   -1.655735   -2.527732
 C          1.723974   -3.102676    1.262863
 C          0.829769   -4.183991    1.287387
 C          0.608962   -4.904107    2.459385
 C          1.272264   -4.578468    3.650931
 C          2.158068   -3.495620    3.623726
 C          2.379710   -2.767890    2.453375
 H          0.308015   -4.476607    0.381242
 H         -0.090522   -5.736906    2.445888
 H          2.686118   -3.212014    4.531150
 H          3.068985   -1.929549    2.478813
 C         -1.723979    3.102682   -1.262938
 C         -0.829750    4.183977   -1.287475
 C         -0.608950    4.904093   -2.459475
 C         -1.272281    4.578473   -3.651009
 C         -2.158108    3.495643   -3.623792
 C         -2.379743    2.767914   -2.453440
 H         -0.307972    4.476577   -0.381339
 H          0.090553    5.736876   -2.445988
 H         -2.686180    3.212052   -4.531208
 H         -3.069037    1.929587   -2.478868
 C         -1.908964    3.094035    1.309931
 C         -2.577144    4.327306    1.342741
 C         -2.682170    5.054814    2.527039
 C         -2.126375    4.582563    3.723449
 C         -1.470371    3.346252    3.688955
 C         -1.364330    2.612585    2.507129
 H         -3.009806    4.734370    0.433993
 H         -3.206153    6.007762    2.518304
 H         -1.034566    2.945595    4.601256
 H         -0.852739    1.655747    2.527635
 C          2.211983   -5.389899   -4.996872
 H          1.387614   -6.112338   -5.063597
 H          2.154768   -4.748226   -5.882033
 C          1.056209   -5.385152    4.909252
 H          1.289003   -4.799953    5.804606
 H          0.020969   -5.733855    4.988377
 C         -1.056236    5.385158   -4.909332
 H         -0.021016    5.733928   -4.988424
 H         -1.288960    4.799933   -5.804688
 C         -2.211963    5.389871    4.996817
 H         -2.154672    4.748199    5.881974
 H         -1.387636    6.112361    5.063508
 H          3.145899   -5.959540   -5.047385
 H          1.699361   -6.275037    4.923915
 H         -1.699448    6.274998   -4.924028
 H         -3.145912    5.959454    5.047371
 S         -8.004351   -0.580271    0.011671
 S          8.004352    0.580274   -0.011700
 C         -8.368674    2.036296   -0.026175
 C          8.368674   -2.036292    0.026188
 H         -8.862725    3.000812   -0.044212
 H          8.862725   -3.000808    0.044249
 C         -9.097035    0.829520   -0.018408
 C          9.097035   -0.829516    0.018424
 H         16.305796    3.263812    0.058044
 H         14.525348    5.007983   -0.004139
 H        -14.525340   -5.007985    0.004208
 H        -16.305793   -3.263814   -0.057831
 F         11.980934    4.502401   -0.034578
 F        -11.980926   -4.502401    0.034538
