       132
S0: Total Energy = -6549.98928836
 C         -6.965254   -2.020149   -0.032055
 C         -6.632831   -0.650990   -0.016879
 C         -5.239547   -0.445725   -0.002098
 C         -4.508581   -1.649274   -0.005504
 C         -3.113490   -1.438124   -0.010426
 C         -2.804728   -0.089184   -0.001124
 C         -1.375002    0.119953    0.002926
 C         -0.771898   -1.165145    0.017392
 C          0.608066   -1.294176    0.011484
 S         -5.546901   -3.067128   -0.023444
 S         -4.194959    0.962120    0.009719
 C         -1.839590   -2.285484    0.016006
 H          1.084736   -2.269672    0.016422
 C          6.965271    2.020192    0.032045
 C          6.632848    0.651033    0.016872
 C          5.239564    0.445768    0.002112
 C          4.508598    1.649317    0.005528
 C          3.113507    1.438167    0.010465
 C          2.804744    0.089228    0.001164
 C          1.375018   -0.119909   -0.002878
 C          0.771915    1.165189   -0.017341
 C         -0.608049    1.294221   -0.011436
 S          5.546918    3.067172    0.023453
 S          4.194975   -0.962077   -0.009696
 C          1.839608    2.285528   -0.015950
 H         -1.084719    2.269716   -0.016375
 C        -10.512044   -1.139495   -0.062722
 C        -11.523225   -0.197746   -0.064761
 C        -11.335839    1.268629   -0.038900
 O        -10.278290    1.890417   -0.018205
 C        -12.686460    1.871919   -0.041610
 C        -13.010495    3.222445   -0.019553
 C        -14.357898    3.550199   -0.027066
 C        -15.336435    2.547022   -0.056305
 C        -15.010655    1.196903   -0.078243
 C        -13.653637    0.852139   -0.070646
 C        -12.962767   -0.463623   -0.088039
 C        -13.613777   -1.686430   -0.122878
 C        -15.035459   -1.820888   -0.144426
 N        -16.189298   -1.983097   -0.163114
 C        -12.956029   -2.953921   -0.143350
 N        -12.468610   -4.012632   -0.161363
 H        -10.833307   -2.174974   -0.077391
 H        -12.247448    3.993029    0.002791
 F        -14.756011    4.828044   -0.006807
 F        -16.622431    2.921736   -0.062533
 H        -15.817914    0.477924   -0.099736
 C         10.512060    1.139526    0.062675
 C         11.523220    0.197757    0.064701
 C         11.335780   -1.268611    0.038841
 O         10.278207   -1.890358    0.018145
 C         12.686379   -1.871951    0.041522
 C         13.010367   -3.222487    0.019446
 C         14.357760   -3.550288    0.026936
 C         15.336332   -2.547144    0.056171
 C         15.010598   -1.197014    0.078127
 C         13.653592   -0.852206    0.070553
 C         12.962775    0.463581    0.087967
 C         13.613860    1.686348    0.122807
 C         15.035552    1.820699    0.144340
 N         16.189408    1.982791    0.163016
 C         12.956209    2.953889    0.143295
 N         12.468906    4.012653    0.161331
 H         10.833334    2.175000    0.077344
 H         12.247294   -3.993045   -0.002894
 F         14.755829   -4.828145    0.006659
 F         16.622315   -2.921902    0.062375
 H         15.817880   -0.478060    0.099615
 C         -1.842633   -3.125199    1.312794
 C         -2.496601   -4.364597    1.357414
 C         -2.580017   -5.088964    2.547953
 C         -2.022349   -4.615607    3.740015
 C         -1.383315   -3.377607    3.663173
 C         -1.282673   -2.631444    2.498187
 H         -2.931550   -4.782482    0.455522
 H         -3.089513   -6.049123    2.551628
 H         -0.768101   -1.678477    2.535592
 C         -1.649330   -3.140895   -1.253470
 C         -0.728462   -4.199645   -1.257603
 C         -0.505121   -4.905410   -2.429327
 C         -1.150494   -4.628878   -3.636433
 C         -2.061815   -3.569370   -3.611899
 C         -2.309443   -2.835450   -2.449047
 H         -0.194424   -4.496380   -0.361775
 H         -2.592942   -3.312909   -4.524966
 H         -3.021949   -2.018393   -2.483705
 C          1.649356    3.140923    1.253539
 C          0.728450    4.199640    1.257709
 C          0.505117    4.905386    2.429446
 C          1.150534    4.628865    3.636531
 C          2.061892    3.569390    3.611961
 C          2.309513    2.835490    2.449095
 H          0.194375    4.496364    0.361900
 H          2.593054    3.312939    4.525011
 H          3.022048    2.018458    2.483724
 C          1.842645    3.125254   -1.312730
 C          2.496694    4.364608   -1.357377
 C          2.580102    5.088975   -2.547917
 C          2.022345    4.615660   -3.739954
 C          1.383232    3.377701   -3.663087
 C          1.282598    2.631540   -2.498100
 H          2.931717    4.782459   -0.455505
 H          3.089661    6.049099   -2.551612
 H          0.767961    1.678607   -2.535483
 C         -2.087112   -5.372391    5.041087
 H         -1.083872   -5.601152    5.419518
 H         -2.593252   -4.786745    5.817364
 C         -0.862871   -5.445031   -4.869685
 H         -1.456690   -5.091401   -5.716956
 H          0.196448   -5.388701   -5.146364
 C          0.862917    5.444995    4.869800
 H         -0.196392    5.388622    5.146510
 H          1.456775    5.091381    5.717049
 C          2.087096    5.372445   -5.041026
 H          2.593180    4.786777   -5.817324
 H          1.083853    5.601255   -5.419420
 H         -2.628021   -6.314390    4.916219
 H         -1.092824   -6.504827   -4.708742
 H          1.092823    6.504802    4.708860
 H          2.628056    6.314417   -4.916175
 S          8.039033   -0.367926    0.021029
 S         -8.039017    0.367969   -0.021056
 C          8.338152    2.252875    0.046600
 C         -8.338134   -2.252832   -0.046625
 H          8.805304    3.231242    0.059796
 H         -8.805285   -3.231200   -0.059825
 C          9.097391    1.069271    0.044462
 C         -9.097375   -1.069229   -0.044495
 F          0.386944   -5.926369   -2.402179
 F         -0.824960   -2.876663    4.792880
 F         -0.386986    5.926313    2.402333
 F          0.824790    2.876800   -4.792769
       132
T1: Total Energy = -6549.94366692
 C          6.933595    2.040391   -0.030121
 C          6.595313    0.662947   -0.009918
 C          5.218804    0.458415    0.006471
 C          4.472182    1.673968   -0.000720
 C          3.098738    1.462655   -0.003656
 C          2.780562    0.091048    0.011393
 C          1.380982   -0.114794    0.010099
 C          0.759156    1.180798    0.016033
 C         -0.609092    1.302334    0.002748
 S          5.517066    3.092986   -0.023551
 S          4.180848   -0.959726    0.025356
 C          1.822345    2.305351    0.016464
 H         -1.093084    2.273942    0.000641
 C         -6.933610   -2.040381    0.030132
 C         -6.595298   -0.662944    0.009996
 C         -5.218784   -0.458439   -0.006218
 C         -4.472183   -1.674004    0.001037
 C         -3.098734   -1.462712    0.004105
 C         -2.780542   -0.091109   -0.010903
 C         -1.380963    0.114723   -0.009548
 C         -0.759141   -1.180871   -0.015474
 C          0.609108   -1.302406   -0.002184
 S         -5.517098   -3.093002    0.023718
 S         -4.180809    0.959686   -0.024973
 C         -1.822342   -2.305418   -0.015936
 H          1.093102   -2.274013   -0.000084
 C         10.476183    1.153866   -0.062236
 C         11.490776    0.203286   -0.063236
 C         11.298108   -1.264106   -0.035467
 O         10.236954   -1.880556   -0.011982
 C         12.645145   -1.874430   -0.040806
 C         12.965368   -3.224942   -0.019138
 C         14.312938   -3.557135   -0.029850
 C         15.291622   -2.556524   -0.061793
 C         14.968690   -1.203929   -0.083338
 C         13.613741   -0.855473   -0.072466
 C         12.922897    0.461306   -0.088406
 C         13.580202    1.688711   -0.123160
 C         15.000447    1.817557   -0.145865
 N         16.155833    1.974774   -0.165431
 C         12.929542    2.957744   -0.141567
 N         12.449827    4.020965   -0.157990
 H         10.801633    2.187423   -0.079799
 H         12.200544   -3.993761    0.005263
 F         14.706927   -4.837801   -0.010140
 F         16.578139   -2.932111   -0.071278
 H         15.777787   -0.487045   -0.107181
 C        -10.476184   -1.153785    0.061811
 C        -11.490759   -0.203187    0.062694
 C        -11.298061    1.264202    0.034947
 O        -10.236893    1.880633    0.011592
 C        -12.645087    1.874551    0.040127
 C        -12.965283    3.225069    0.018415
 C        -14.312847    3.557287    0.028968
 C        -15.291554    2.556695    0.060800
 C        -14.968650    1.204094    0.082387
 C        -13.613706    0.855613    0.071674
 C        -12.922889   -0.461180    0.087702
 C        -13.580220   -1.688572    0.122390
 C        -15.000471   -1.817392    0.144934
 N        -16.155862   -1.974588    0.164369
 C        -12.929586   -2.957617    0.140882
 N        -12.449891   -4.020846    0.157374
 H        -10.801655   -2.187336    0.079329
 H        -12.200441    3.993874   -0.005899
 F        -14.706810    4.837961    0.009206
 F        -16.578064    2.932306    0.070132
 H        -15.777763    0.487226    0.106139
 C          1.821231    3.143431    1.314483
 C          2.468193    4.386353    1.360019
 C          2.548135    5.108468    2.552020
 C          1.994473    4.629231    3.743732
 C          1.362895    3.387433    3.665576
 C          1.266486    2.642685    2.499283
 H          2.899836    4.808729    0.458750
 H          3.051717    6.071616    2.557142
 H          0.758197    1.686334    2.536532
 C          1.633887    3.157759   -1.255066
 C          0.715014    4.218094   -1.260553
 C          0.491717    4.920333   -2.434381
 C          1.135154    4.638074   -3.641492
 C          2.043705    3.576357   -3.615115
 C          2.290804    2.845228   -2.450370
 H          0.183220    4.519214   -0.364908
 H          2.572770    3.315428   -4.527991
 H          3.001437    2.026434   -2.484577
 C         -1.633950   -3.157800    1.255622
 C         -0.715224   -4.218261    1.261105
 C         -0.491981   -4.920498    2.434944
 C         -1.135338   -4.638118    3.642070
 C         -2.043748   -3.576281    3.615695
 C         -2.290790   -2.845151    2.450937
 H         -0.183507   -4.519483    0.365448
 H         -2.572749   -3.315257    4.528580
 H         -3.001315   -2.026264    2.485145
 C         -1.821167   -3.143539   -1.313926
 C         -2.467908   -4.386578   -1.359379
 C         -2.547794   -5.108748   -2.551352
 C         -1.994290   -4.629453   -3.743114
 C         -1.362926   -3.387541   -3.665038
 C         -1.266577   -2.642737   -2.498775
 H         -2.899418   -4.809005   -0.458069
 H         -3.051203   -6.071987   -2.556410
 H         -0.758458   -1.686298   -2.536087
 C          2.056370    5.383674    5.046126
 H          1.052126    5.605256    5.426007
 H          2.566933    4.799126    5.820260
 C          0.848003    5.451145   -4.876723
 H          1.439733    5.093623   -5.723726
 H         -0.211900    5.396795   -5.151372
 C         -0.848253   -5.451193    4.877314
 H          0.211667   -5.396974    5.151927
 H         -1.439909   -5.093571    5.724325
 C         -2.056133   -5.383950   -5.045478
 H         -2.566859   -4.799524   -5.819597
 H         -1.051873   -5.605355   -5.425421
 H          2.591423    6.329085    4.922599
 H          1.080962    6.510652   -4.718655
 H         -1.081355   -6.510674    4.719281
 H         -2.590999   -6.329458   -4.921884
 S         -8.013223    0.357427    0.013156
 S          8.013259   -0.357393   -0.013266
 C         -8.297879   -2.274644    0.047341
 C          8.297857    2.274682   -0.047510
 H         -8.766186   -3.251913    0.064227
 H          8.766142    3.251960   -0.064471
 C         -9.065986   -1.083666    0.042408
 C          9.065988    1.083720   -0.042660
 F         -0.397611    5.942784   -2.409434
 F          0.809295    2.880498    4.794192
 F          0.397204   -5.943072    2.409992
 F         -0.809483   -2.880546   -4.793704
       132
S1: Total Energy = -6549.92893442
 C          6.937008    2.034850   -0.026630
 C          6.602285    0.662687   -0.007694
 C          5.218298    0.458264    0.008619
 C          4.477680    1.670399    0.002873
 C          3.098567    1.458446   -0.000266
 C          2.782888    0.091042    0.012391
 C          1.379646   -0.115629    0.009849
 C          0.759920    1.179503    0.018696
 C         -0.609659    1.301961    0.005427
 S          5.522472    3.087580   -0.018990
 S          4.181586   -0.958144    0.025015
 C          1.823874    2.302326    0.021579
 H         -1.093057    2.273772    0.005956
 C         -6.936994   -2.034832    0.026566
 C         -6.602273   -0.662669    0.007620
 C         -5.218287   -0.458244   -0.008751
 C         -4.477668   -1.670378   -0.003034
 C         -3.098555   -1.458424    0.000066
 C         -2.782877   -0.091020   -0.012597
 C         -1.379634    0.115652   -0.010077
 C         -0.759908   -1.179480   -0.018930
 C          0.609670   -1.301938   -0.005660
 S         -5.522458   -3.087560    0.018865
 S         -4.181576    0.958166   -0.025182
 C         -1.823862   -2.302303   -0.021809
 H          1.093070   -2.273748   -0.006189
 C         10.487270    1.152048   -0.062171
 C         11.497394    0.204619   -0.064039
 C         11.303334   -1.263792   -0.032298
 O         10.241132   -1.878326   -0.006270
 C         12.649271   -1.874226   -0.037123
 C         12.968456   -3.224720   -0.011427
 C         14.315901   -3.558474   -0.022502
 C         15.295495   -2.558354   -0.058972
 C         14.974656   -1.205717   -0.084544
 C         13.619137   -0.854355   -0.073249
 C         12.933879    0.460561   -0.092662
 C         13.590954    1.689431   -0.133676
 C         15.010506    1.818651   -0.159881
 N         16.166372    1.975119   -0.182558
 C         12.939568    2.957172   -0.156380
 N         12.457132    4.019647   -0.176496
 H         10.811488    2.186163   -0.080603
 H         12.202872   -3.992692    0.016327
 F         14.708900   -4.839623    0.001074
 F         16.581488   -2.935933   -0.068688
 H         15.784314   -0.489561   -0.111585
 C        -10.487256   -1.152034    0.062297
 C        -11.497378   -0.204604    0.064247
 C        -11.303316    1.263808    0.032532
 O        -10.241115    1.878339    0.006429
 C        -12.649252    1.874245    0.037487
 C        -12.968434    3.224740    0.011861
 C        -14.315877    3.558498    0.023062
 C        -15.295471    2.558380    0.059586
 C        -14.974634    1.205741    0.085085
 C        -13.619118    0.854375    0.073662
 C        -12.933861   -0.460543    0.092970
 C        -13.590933   -1.689416    0.133977
 C        -15.010482   -1.818638    0.160304
 N        -16.166345   -1.975112    0.183081
 C        -12.939544   -2.957157    0.156548
 N        -12.457100   -4.019630    0.176590
 H        -10.811473   -2.186149    0.080729
 H        -12.202851    3.992711   -0.015935
 F        -14.708874    4.839649   -0.000438
 F        -16.581462    2.935963    0.069427
 H        -15.784293    0.489588    0.112174
 C          1.824624    3.136588    1.321942
 C          2.470206    4.380099    1.369707
 C          2.551748    5.098467    2.563837
 C          2.001224    4.614804    3.755244
 C          1.371136    3.372303    3.674772
 C          1.273417    2.631035    2.506449
 H          2.899734    4.805642    0.468962
 H          3.054237    6.062139    2.570941
 H          0.767077    1.673568    2.542312
 C          1.635271    3.156537   -1.248563
 C          0.719297    4.219328   -1.251522
 C          0.496569    4.923306   -2.424422
 C          1.137869    4.640344   -3.632624
 C          2.043411    3.575987   -3.608567
 C          2.289728    2.842860   -2.444953
 H          0.189621    4.521127   -0.354859
 H          2.570625    3.314548   -4.522329
 H          2.997823    2.021901   -2.480941
 C         -1.635240   -3.156535    1.248314
 C         -0.719462   -4.219494    1.251148
 C         -0.496705   -4.923515    2.424017
 C         -1.137790   -4.640437    3.632306
 C         -2.043144   -3.575918    3.608371
 C         -2.289486   -2.842744    2.444790
 H         -0.189967   -4.521394    0.354411
 H         -2.570191   -3.314385    4.522203
 H         -2.997430   -2.021659    2.480874
 C         -1.824630   -3.136558   -1.322174
 C         -2.470033   -4.380163   -1.369868
 C         -2.551592   -5.098548   -2.563986
 C         -2.001260   -4.614809   -3.755452
 C         -1.371340   -3.372218   -3.675047
 C         -1.273609   -2.630932   -2.506737
 H         -2.899402   -4.805768   -0.469075
 H         -3.053940   -6.062294   -2.571036
 H         -0.767407   -1.673394   -2.542654
 C          2.065048    5.365217    5.059789
 H          1.061323    5.584097    5.442569
 H          2.578127    4.778825    5.830844
 C          0.851628    5.455588   -4.866568
 H          1.441191    5.097255   -5.714705
 H         -0.208807    5.404778   -5.139792
 C         -0.851532   -5.455735    4.866210
 H          0.208948   -5.405115    5.139294
 H         -1.440918   -5.097298    5.714426
 C         -2.065109   -5.365236   -5.059988
 H         -2.578362   -4.778926   -5.830988
 H         -1.061391   -5.583961   -5.442876
 H          2.598512    6.311723    4.938047
 H          1.088001    6.514167   -4.707452
 H         -1.088116   -6.514271    4.707123
 H         -2.598412   -6.311825   -4.938185
 S         -8.017474    0.356846    0.011562
 S          8.017484   -0.356830   -0.011562
 C         -8.308281   -2.269684    0.044300
 C          8.308296    2.269699   -0.044297
 H         -8.775239   -3.247606    0.061110
 H          8.775256    3.247622   -0.061089
 C         -9.070028   -1.083438    0.040561
 C          9.070041    1.083453   -0.040513
 F         -0.389818    5.947963   -2.397461
 F          0.820825    2.861093    4.802840
 F          0.389490   -5.948336    2.396935
 F         -0.821215   -2.860935   -4.803172
