       140
S0: Total Energy = -5149.07298864
 C         -6.912577    1.232116    0.037570
 C         -6.632935   -0.160138    0.042192
 C         -5.241454   -0.280052    0.037260
 C         -4.696694    1.034284    0.026204
 C         -3.277512    1.035055    0.027777
 C         -2.790137   -0.261169    0.051856
 C         -1.347438   -0.287117    0.034917
 C         -0.912454    1.060846   -0.029170
 C          0.440617    1.357276   -0.065799
 S         -4.004519   -1.518897    0.061026
 C         -2.116871    2.039507   -0.046503
 H          0.796168    2.381477   -0.114564
 C          6.912578   -1.232111   -0.037527
 C          6.632937    0.160144   -0.042219
 C          5.241456    0.280060   -0.037398
 C          4.696695   -1.034276   -0.026360
 C          3.277514   -1.035050   -0.028061
 C          2.790138    0.261173   -0.052164
 C          1.347438    0.287116   -0.035256
 C          0.912455   -1.060848    0.028823
 C         -0.440616   -1.357277    0.065457
 S          4.004520    1.518901   -0.061284
 C          2.116876   -2.039508    0.046126
 H         -0.796170   -2.381477    0.114225
 C        -10.481645    0.492287    0.052111
 C        -11.537772   -0.406266    0.060269
 C        -11.418686   -1.878906    0.058034
 O        -10.388327   -2.547575    0.058672
 C        -12.796042   -2.421821    0.053910
 C        -13.191303   -3.751754    0.047569
 C        -14.560646   -4.030898    0.042805
 C        -15.489208   -2.983842    0.044494
 C        -15.084658   -1.643739    0.051425
 C        -13.715456   -1.356876    0.056347
 C        -12.959494   -0.073939    0.064966
 C        -13.553366    1.181746    0.079713
 C        -14.965851    1.389761    0.082004
 N        -16.108316    1.621828    0.084324
 C        -12.837435    2.416770    0.097713
 N        -12.301342    3.452352    0.113619
 H        -10.761898    1.539627    0.046937
 H        -12.445916   -4.541272    0.046185
 H        -15.836502   -0.866609    0.052285
 C         10.481647   -0.492276   -0.051723
 C         11.537764    0.406288   -0.059785
 C         11.418658    1.878926   -0.057578
 O         10.388289    2.547581   -0.058474
 C         12.796006    2.421858   -0.053464
 C         13.191249    3.751797   -0.047239
 C         14.560587    4.030961   -0.042414
 C         15.489163    2.983918   -0.043932
 C         15.084633    1.643809   -0.050754
 C         13.715435    1.356924   -0.055738
 C         12.959488    0.073977   -0.064310
 C         13.553360   -1.181710   -0.078931
 C         14.965843   -1.389738   -0.081099
 N         16.108303   -1.621836   -0.083314
 C         12.837420   -2.416728   -0.096929
 N         12.301303   -3.452298   -0.112838
 H         10.761909   -1.539614   -0.046482
 H         12.445851    4.541306   -0.045976
 H         15.836489    0.866691   -0.051494
 C         -2.196236    2.800315   -1.395763
 C         -2.628707    4.127032   -1.496338
 C         -2.751352    4.754134   -2.740026
 C         -2.450297    4.082499   -3.927990
 C         -2.025845    2.749189   -3.826077
 C         -1.901155    2.122400   -2.590133
 H         -2.869242    4.691845   -0.602840
 H         -3.086467    5.788276   -2.778777
 H         -1.788544    2.191529   -4.729432
 H         -1.572226    1.088173   -2.556376
 C         -2.015143    2.951624    1.193011
 C         -1.117749    4.033071    1.219245
 C         -0.954952    4.807809    2.364890
 C         -1.677902    4.539491    3.536261
 C         -2.563726    3.458070    3.512897
 C         -2.729136    2.677378    2.366101
 H         -0.544335    4.283514    0.332160
 H         -0.251095    5.637000    2.347870
 H         -3.135501    3.213730    4.405231
 H         -3.415984    1.837714    2.399068
 C          2.015191   -2.951554   -1.193445
 C          1.118078   -4.033236   -1.219616
 C          0.955310   -4.807940   -2.365288
 C          1.678009   -4.539352   -3.536751
 C          2.563557   -3.457703   -3.513448
 C          2.728939   -2.677047   -2.366623
 H          0.544874   -4.283898   -0.332456
 H          0.251676   -5.637318   -2.348216
 H          3.135132   -3.213153   -4.405853
 H          3.415563   -1.837202   -2.399639
 C          2.196226   -2.800404    1.395336
 C          2.628790   -4.127096    1.495836
 C          2.751414   -4.754280    2.739485
 C          2.450245   -4.082754    3.927481
 C          2.025701   -2.749467    3.825643
 C          1.901033   -2.122597    2.589738
 H          2.869420   -4.691824    0.602308
 H          3.086606   -5.788399    2.778178
 H          1.788311   -2.191890    4.729026
 H          1.572031   -1.088391    2.556038
 C         -2.556467    4.765640   -5.270755
 H         -1.565580    5.037850   -5.657395
 H         -3.023135    4.112022   -6.016355
 C         -1.517246    5.401398    4.766055
 H         -1.865609    4.883874    5.665459
 H         -0.470789    5.686484    4.920776
 C          1.517393   -5.401217   -4.766580
 H          0.470996   -5.686617   -4.921126
 H          1.865427   -4.883518   -5.666010
 C          2.556391   -4.765986    5.270201
 H          3.022938   -4.112377    6.015884
 H          1.565504   -5.038328    5.656751
 H         -3.148033    5.684303   -5.206729
 H         -2.094799    6.331128    4.677800
 H          2.095252   -6.330773   -4.678502
 H          3.148056   -5.684583    5.206147
 S          8.077965    1.122540   -0.053965
 S         -8.077962   -1.122535    0.054022
 C          8.270562   -1.525854   -0.037684
 C         -8.270562    1.525859    0.037861
 H          8.705984   -2.518706   -0.028629
 H         -8.705984    2.518711    0.028887
 C          9.076047   -0.367178   -0.047762
 C         -9.076046    0.367183    0.047990
 N         -5.728123    1.952992    0.042341
 N          5.728124   -1.952986   -0.042366
 C         -5.636627    3.406226    0.019979
 H         -4.801385    3.729330    0.643315
 H         -5.498503    3.783845   -0.997560
 H         -6.557006    3.819970    0.437201
 C          5.636621   -3.406220   -0.019947
 H          5.498415   -3.783792    0.997598
 H          4.801427   -3.729351   -0.643334
 H          6.557031   -3.819986   -0.437078
 H        -16.551367   -3.210584    0.040302
 H        -14.907592   -5.060013    0.037577
 H         14.907518    5.060082   -0.037266
 H         16.551319    3.210675   -0.039695
       140
T1: Total Energy = -5149.02935511
 C         -6.884016   -1.254813   -0.043304
 C         -6.599997    0.143632   -0.043158
 C         -5.221898    0.263948   -0.039150
 C         -4.664192   -1.062644   -0.031280
 C         -3.267263   -1.061825   -0.026211
 C         -2.767195    0.256264   -0.042854
 C         -1.354009    0.283138   -0.030275
 C         -0.902246   -1.077243    0.025450
 C          0.440572   -1.365494    0.057175
 S         -3.991905    1.513068   -0.053034
 C         -2.102396   -2.061262    0.041827
 H          0.803397   -2.387237    0.099268
 C          6.883987    1.254778    0.042991
 C          6.599995   -0.143675    0.042943
 C          5.221896   -0.264019    0.039084
 C          4.664171    1.062562    0.031238
 C          3.267248    1.061729    0.026379
 C          2.767185   -0.256359    0.043046
 C          1.353998   -0.283232    0.030503
 C          0.902234    1.077152   -0.025217
 C         -0.440584    1.365401   -0.056940
 S          3.991912   -1.513152    0.053150
 C          2.102387    2.061171   -0.041513
 H         -0.803415    2.387141   -0.099037
 C        -10.453772   -0.506207   -0.053517
 C        -11.509110    0.402420   -0.058706
 C        -11.382151    1.877793   -0.058011
 O        -10.346694    2.538627   -0.057920
 C        -12.754862    2.429996   -0.057031
 C        -13.142842    3.761313   -0.054432
 C        -14.511696    4.048433   -0.053282
 C        -15.443367    3.005337   -0.054844
 C        -15.045151    1.661948   -0.057782
 C        -13.678101    1.367594   -0.058923
 C        -12.926631    0.082284   -0.062370
 C        -13.528610   -1.177338   -0.070083
 C        -14.940408   -1.377072   -0.071771
 N        -16.085242   -1.601752   -0.073337
 C        -12.822366   -2.415868   -0.079211
 N        -12.296820   -3.457972   -0.087479
 H        -10.740031   -1.551318   -0.051131
 H        -12.393251    4.546975   -0.053220
 H        -15.800846    0.888496   -0.058840
 C         10.453759    0.506243    0.053042
 C         11.509112   -0.402365    0.058259
 C         11.382178   -1.877740    0.057506
 O         10.346732   -2.538590    0.057281
 C         12.754898   -2.429920    0.056555
 C         13.142901   -3.761230    0.053898
 C         14.511759   -4.048328    0.052809
 C         15.443413   -3.005215    0.054487
 C         15.045174   -1.661834    0.057475
 C         13.678119   -1.367503    0.058556
 C         12.926628   -0.082205    0.062008
 C         13.528584    1.177428    0.069801
 C         14.940379    1.377186    0.071560
 N         16.085209    1.601887    0.073186
 C         12.822318    2.415945    0.078931
 N         12.296751    3.458038    0.087227
 H         10.739998    1.551359    0.050652
 H         12.393323   -4.546905    0.052603
 H         15.800857   -0.888369    0.058615
 C         -2.178620   -2.823018    1.390328
 C         -2.617741   -4.147864    1.489593
 C         -2.738409   -4.776033    2.732409
 C         -2.429287   -4.107610    3.920607
 C         -1.998518   -2.776513    3.819672
 C         -1.875741   -2.147986    2.584223
 H         -2.864299   -4.709801    0.595999
 H         -3.078372   -5.808490    2.770885
 H         -1.755267   -2.221596    4.723022
 H         -1.542451   -1.115085    2.552535
 C         -1.998249   -2.969321   -1.200431
 C         -1.104626   -4.053795   -1.224441
 C         -0.937432   -4.824110   -2.372344
 C         -1.651649   -4.547854   -3.547332
 C         -2.532919   -3.462624   -3.525734
 C         -2.702476   -2.685783   -2.377038
 H         -0.538212   -4.310261   -0.334598
 H         -0.237442   -5.656440   -2.354083
 H         -3.097435   -3.212039   -4.420839
 H         -3.385723   -1.843197   -2.411672
 C          1.998281    2.969093    1.200850
 C          1.105096    4.053927    1.224760
 C          0.937916    4.824174    2.372710
 C          1.651713    4.547489    3.547852
 C          2.532551    3.461905    3.526352
 C          2.702095    2.685136    2.377604
 H          0.539028    4.310747    0.334795
 H          0.238273    5.656795    2.354361
 H          3.096730    3.210980    4.421573
 H          3.384991    1.842269    2.412321
 C          2.178613    2.823103   -1.389905
 C          2.618084    4.147840   -1.489040
 C          2.738727    4.776158   -2.731784
 C          2.429233    4.107993   -3.920031
 C          1.998124    2.776995   -3.819226
 C          1.875375    2.148320   -2.583850
 H          2.864958    4.709569   -0.595401
 H          3.078970    5.808526   -2.770163
 H          1.754587    2.222274   -4.722618
 H          1.541818    1.115501   -2.552257
 C         -2.534201   -4.792554    5.262367
 H         -1.543405   -5.073555    5.642781
 H         -2.991323   -4.136396    6.011514
 C         -1.486322   -5.405361   -4.779412
 H         -1.829178   -4.883993   -5.678627
 H         -0.439694   -5.692064   -4.929592
 C          1.486417    5.404917    4.779991
 H          0.439880    5.692101    4.929886
 H          1.828749    4.883272    5.679244
 C          2.534120    4.793107   -5.261707
 H          2.990916    4.136924   -6.011031
 H          1.543342    5.074461   -5.641907
 H         -3.133616   -5.706092    5.199618
 H         -2.066232   -6.334071   -4.696938
 H          2.066796    6.333360    4.697812
 H          3.133818    5.706456   -5.198925
 S          8.054597   -1.108543    0.051419
 S         -8.054577    1.108531   -0.051719
 C          8.239391    1.549491    0.043414
 C         -8.239426   -1.549499   -0.043881
 H          8.675632    2.541306    0.035463
 H         -8.675688   -2.541305   -0.036014
 C          9.047898    0.385784    0.049973
 C         -9.047909   -0.385776   -0.050428
 N         -5.705872   -1.978093   -0.051242
 N          5.705829    1.978036    0.051001
 C         -5.620343   -3.432004   -0.044200
 H         -4.788267   -3.751935   -0.673501
 H         -5.481458   -3.820202    0.969179
 H         -6.543856   -3.836706   -0.463100
 C          5.620250    3.431945    0.043840
 H          5.481259    3.820048   -0.969562
 H          4.788218    3.751906    0.673184
 H          6.543787    3.836717    0.462621
 H        -16.504779    3.236266   -0.053744
 H        -14.853614    5.079200   -0.051082
 H         14.853695   -5.079088    0.050567
 H         16.504829   -3.236127    0.053434
       140
S1: Total Energy = -5149.01330814
 C         -6.888956   -1.246025   -0.032980
 C         -6.607880    0.147135   -0.036193
 C         -5.223014    0.267240   -0.031844
 C         -4.670430   -1.055542   -0.020794
 C         -3.267852   -1.054982   -0.017845
 C         -2.770033    0.258393   -0.039025
 C         -1.352737    0.284859   -0.028890
 C         -0.903734   -1.074643    0.030583
 C          0.440344   -1.364965    0.060569
 S         -3.993040    1.514114   -0.051214
 C         -2.105254   -2.055842    0.052025
 H          0.801653   -2.387056    0.105346
 C          6.888953    1.246021    0.033215
 C          6.607871   -0.147136    0.036356
 C          5.223005   -0.267235    0.031767
 C          4.670426    1.055549    0.020654
 C          3.267846    1.054989    0.017476
 C          2.770025   -0.258384    0.038601
 C          1.352731   -0.284852    0.028344
 C          0.903729    1.074649   -0.031147
 C         -0.440349    1.364972   -0.061141
 S          3.993027   -1.514107    0.050946
 C          2.105250    2.055847   -0.052549
 H         -0.801659    2.387063   -0.105915
 C        -10.465416   -0.502068   -0.051684
 C        -11.516864    0.401710   -0.059690
 C        -11.390427    1.878251   -0.052628
 O        -10.354580    2.538350   -0.049687
 C        -12.762855    2.428283   -0.048629
 C        -13.151533    3.759309   -0.038199
 C        -14.520484    4.046394   -0.034759
 C        -15.452161    3.002270   -0.041964
 C        -15.054747    1.659576   -0.053101
 C        -13.686260    1.363659   -0.056630
 C        -12.939987    0.081208   -0.068594
 C        -13.539126   -1.180186   -0.089691
 C        -14.950172   -1.382461   -0.095085
 N        -16.095216   -1.607775   -0.099996
 C        -12.830017   -2.416258   -0.112213
 N        -12.299870   -3.456346   -0.131859
 H        -10.749118   -1.548123   -0.049484
 H        -12.402015    4.545057   -0.032759
 H        -15.810271    0.885933   -0.058279
 C         10.465408    0.502052    0.052308
 C         11.516856   -0.401726    0.060327
 C         11.390423   -1.878268    0.053266
 O         10.354579   -2.538371    0.050364
 C         12.762853   -2.428296    0.049254
 C         13.151534   -3.759321    0.038825
 C         14.520486   -4.046402    0.035357
 C         15.452160   -3.002275    0.042525
 C         15.054743   -1.659583    0.053663
 C         13.686255   -1.363669    0.057232
 C         12.939978   -0.081220    0.069235
 C         13.539106    1.180177    0.090379
 C         14.950149    1.382468    0.095747
 N         16.095189    1.607804    0.100649
 C         12.829982    2.416239    0.112984
 N         12.299815    3.456316    0.132699
 H         10.749113    1.548107    0.050144
 H         12.402018   -4.545071    0.033410
 H         15.810265   -0.885938    0.058815
 C         -2.181869   -2.811180    1.404005
 C         -2.619410   -4.136085    1.509347
 C         -2.739543   -4.758272    2.755173
 C         -2.431481   -4.083681    3.940242
 C         -2.002677   -2.752388    3.833110
 C         -1.880756   -2.129623    2.594760
 H         -2.865274   -4.702508    0.618409
 H         -3.078315   -5.790901    2.798638
 H         -1.760725   -2.192724    4.733848
 H         -1.549748   -1.096125    2.558215
 C         -2.004014   -2.968340   -1.186962
 C         -1.112712   -4.054752   -1.208529
 C         -0.949072   -4.829254   -2.354115
 C         -1.664719   -4.555424   -3.528833
 C         -2.543685   -3.468227   -3.509565
 C         -2.709600   -2.687045   -2.363340
 H         -0.545456   -4.309492   -0.318708
 H         -0.250857   -5.663017   -2.334242
 H         -3.109207   -3.219597   -4.404554
 H         -3.391153   -1.843122   -2.399585
 C          2.003904    2.968413    1.186382
 C          1.112627    4.054846    1.207818
 C          0.948905    4.829410    2.353350
 C          1.664442    4.555626    3.528145
 C          2.543377    3.468401    3.509011
 C          2.709375    2.687157    2.362841
 H          0.545444    4.309548    0.317941
 H          0.250710    5.663188    2.333372
 H          3.108812    3.219797    4.404064
 H          3.390900    1.843216    2.399193
 C          2.181975    2.811113   -1.404559
 C          2.619506    4.136019   -1.509920
 C          2.739754    4.758151   -2.755761
 C          2.431820    4.083502   -3.940831
 C          2.003023    2.752209   -3.833680
 C          1.880985    2.129498   -2.595313
 H          2.865270    4.702488   -0.618985
 H          3.078511    5.790785   -2.799239
 H          1.761167    2.192500   -4.734416
 H          1.549983    1.095999   -2.558755
 C         -2.535791   -4.762286    5.285197
 H         -1.544639   -5.040008    5.667088
 H         -2.993928   -4.103114    6.031057
 C         -1.503305   -5.417540   -4.758175
 H         -1.846685   -4.898656   -5.658610
 H         -0.457545   -5.706975   -4.909119
 C          1.502953    5.417816    4.757425
 H          0.457200    5.707352    4.908226
 H          1.846177    4.898946    5.657927
 C          2.536249    4.762049   -5.285806
 H          2.994449    4.102843   -6.031597
 H          1.545130    5.039757   -5.667795
 H         -3.133887   -5.676950    5.226710
 H         -2.085021   -6.344712   -4.671326
 H          2.084764    6.344931    4.670601
 H          3.134342    5.676714   -5.227306
 S          8.060008   -1.111208    0.048362
 S         -8.060024    1.111201   -0.047978
 C          8.250305    1.540802    0.035360
 C         -8.250307   -1.540810   -0.034892
 H          8.686061    2.532960    0.026922
 H         -8.686058   -2.532969   -0.026387
 C          9.053124    0.380809    0.045512
 C         -9.053132   -0.380820   -0.044978
 N         -5.710935   -1.970844   -0.037996
 N          5.710933    1.970847    0.038058
 C         -5.625246   -3.424618   -0.022634
 H         -4.795591   -3.748646   -0.653123
 H         -5.482411   -3.806786    0.992520
 H         -6.550270   -3.832145   -0.435321
 C          5.625265    3.424621    0.022724
 H          5.482622    3.806823   -0.992445
 H          4.795498    3.748637    0.653071
 H          6.550217    3.832123    0.435597
 H        -16.513577    3.233472   -0.038852
 H        -14.862830    5.076971   -0.026361
 H         14.862835   -5.076978    0.026956
 H         16.513577   -3.233475    0.039384
