       140
S0: Total Energy = -5545.99115397
 C         -6.849954   -1.534314   -0.033803
 C         -6.631914   -0.129892   -0.035503
 C         -5.247890    0.051425   -0.032748
 C         -4.645765   -1.238689   -0.025813
 C         -3.228386   -1.177638   -0.028922
 C         -2.798301    0.138927   -0.050137
 C         -1.358287    0.227719   -0.034110
 C         -0.864905   -1.100337    0.026425
 C          0.499831   -1.337196    0.061831
 S         -4.065613    1.343064   -0.054949
 C         -2.025192   -2.130791    0.041628
 H          0.900804   -2.344676    0.107866
 C          6.849936    1.534255    0.033553
 C          6.631888    0.129834    0.035167
 C          5.247863   -0.051479    0.032360
 C          4.645739    1.238637    0.025450
 C          3.228359    1.177589    0.028527
 C          2.798274   -0.138977    0.049717
 C          1.358261   -0.227769    0.033683
 C          0.864879    1.100286   -0.026853
 C         -0.499857    1.337145   -0.062262
 S          4.065584   -1.343116    0.054514
 C          2.025165    2.130739   -0.042080
 H         -0.900829    2.344626   -0.108305
 C        -10.446345   -0.953792   -0.043231
 C        -11.543331   -0.102874   -0.050752
 C        -11.491620    1.371871   -0.046338
 O        -10.498082    2.093158   -0.043405
 C        -12.894033    1.848978   -0.044411
 C        -13.342804    3.162839   -0.038059
 C        -14.715646    3.363544   -0.036877
 C        -15.595341    2.273906   -0.042101
 C        -15.144033    0.959420   -0.048903
 C        -13.761301    0.743348   -0.049948
 C        -12.946322   -0.502068   -0.057745
 C        -13.484855   -1.782313   -0.073282
 C        -14.887420   -2.047188   -0.076000
 N        -16.021679   -2.316431   -0.078474
 C        -12.715934   -2.984793   -0.091310
 N        -12.135717   -3.996188   -0.107383
 H        -10.680787   -2.012323   -0.039795
 H        -12.655188    4.001769   -0.034097
 F        -15.230698    4.600318   -0.030651
 F        -16.912176    2.525444   -0.040434
 H        -15.880456    0.167741   -0.052611
 C         10.446326    0.953738    0.043476
 C         11.543350    0.102865    0.051133
 C         11.491735   -1.371886    0.046638
 O         10.498247   -2.093242    0.043671
 C         12.894177   -1.848906    0.045043
 C         13.343031   -3.162740    0.038828
 C         14.715886   -3.363359    0.037930
 C         15.595512   -2.273666    0.043297
 C         15.144120   -0.959208    0.049971
 C         13.761375   -0.743224    0.050731
 C         12.946316    0.502140    0.058359
 C         13.484768    1.782416    0.074002
 C         14.887317    2.047375    0.076988
 N         16.021560    2.316679    0.079679
 C         12.715769    2.984849    0.091907
 N         12.135487    3.996208    0.107871
 H         10.680740    2.012275    0.040130
 H         12.655469   -4.001713    0.034747
 F         15.231017   -4.600101    0.031843
 F         16.912364   -2.525121    0.041905
 H         15.880491   -0.167481    0.053812
 C         -2.070286   -2.897996    1.388918
 C         -2.442392   -4.243122    1.486177
 C         -2.536598   -4.877981    2.728433
 C         -2.266178   -4.196233    3.918086
 C         -1.902432   -2.844801    3.819429
 C         -1.806157   -2.210168    2.584910
 H         -2.657066   -4.816437    0.591504
 H         -2.824697   -5.926250    2.764613
 H         -1.690704   -2.279077    4.724093
 H         -1.524341   -1.162015    2.553795
 C         -1.884814   -3.033410   -1.201150
 C         -0.941595   -4.074938   -1.231001
 C         -0.745668   -4.838069   -2.379307
 C         -1.479644   -4.597085   -3.549771
 C         -2.410999   -3.554593   -3.522927
 C         -2.609848   -2.785756   -2.373453
 H         -0.357586   -4.303121   -0.344901
 H         -0.006832   -5.636269   -2.365090
 H         -2.992588   -3.331961   -4.414590
 H         -3.332039   -1.976188   -2.403976
 C          1.884761    3.033410    1.200658
 C          0.941559    4.074956    1.230435
 C          0.745601    4.838133    2.378706
 C          1.479526    4.597177    3.549207
 C          2.410860    3.554666    3.522439
 C          2.609741    2.785782    2.373001
 H          0.357589    4.303118    0.344304
 H          0.006780    5.636346    2.364431
 H          2.992408    3.332053    4.414134
 H          3.331913    1.976200    2.403584
 C          2.070272    2.897880   -1.389407
 C          2.442411    4.242992   -1.486740
 C          2.536624    4.877785   -2.729028
 C          2.266180    4.195983   -3.918644
 C          1.902402    2.844564   -3.819915
 C          1.806119    2.209998   -2.585363
 H          2.657106    4.816348   -0.592098
 H          2.824748    5.926045   -2.765265
 H          1.690654    2.278800   -4.724549
 H          1.524278    1.161853   -2.554192
 C         -2.341203   -4.886693    5.259199
 H         -1.338979   -5.117427    5.643572
 H         -2.833883   -4.255292    6.007171
 C         -1.282596   -5.447204   -4.782415
 H         -1.646791   -4.939159   -5.680929
 H         -0.225776   -5.692761   -4.934135
 C          1.282448    5.447345    4.781813
 H          0.225636    5.692986    4.933446
 H          1.646537    4.939298    5.680368
 C          2.341210    4.886373   -5.259793
 H          2.833834    4.254907   -6.007747
 H          1.338989    5.117147   -5.644151
 H         -2.893138   -5.829567    5.193564
 H         -1.825720   -6.397971   -4.699959
 H          1.825651    6.398068    4.699372
 H          2.893201    5.829219   -5.194218
 S          8.118474   -0.766903    0.042595
 S         -8.118505    0.766837   -0.042897
 C          8.192157    1.888477    0.032436
 C         -8.192173   -1.888546   -0.032507
 H          8.582386    2.899907    0.025350
 H         -8.582398   -2.899976   -0.025316
 C          9.049657    0.766280    0.039152
 C         -9.049676   -0.766350   -0.039155
 N         -5.634891   -2.201785   -0.042348
 N          5.634875    2.201734    0.041959
 C         -5.479695   -3.650083   -0.027413
 H         -4.625430   -3.931645   -0.644780
 H         -5.334297   -4.026873    0.989322
 H         -6.377067   -4.101294   -0.455688
 C          5.479692    3.650032    0.026909
 H          5.334322    4.026756   -0.989855
 H          4.625418    3.931639    0.644243
 H          6.377057    4.101263    0.455177
       140
T1: Total Energy = -5545.94824544
 C         -6.819599    1.558927    0.036456
 C         -6.598681    0.148832    0.033370
 C         -5.227278   -0.033309    0.030878
 C         -4.611626    1.267670    0.027137
 C         -3.216069    1.205333    0.024431
 C         -2.775187   -0.133455    0.038515
 C         -1.364438   -0.222618    0.027668
 C         -0.853151    1.116720   -0.023778
 C          0.501269    1.344927   -0.053448
 S         -4.053172   -1.335275    0.043956
 C         -2.008481    2.152749   -0.038431
 H          0.910464    2.349220   -0.092312
 C          6.819678   -1.559049   -0.037012
 C          6.598766   -0.148952   -0.033916
 C          5.227364    0.033198   -0.031752
 C          4.611706   -1.267778   -0.028184
 C          3.216151   -1.205438   -0.025629
 C          2.775272    0.133354   -0.039736
 C          1.364523    0.222521   -0.028951
 C          0.853234   -1.116815    0.022498
 C         -0.501186   -1.345024    0.052161
 S          4.053265    1.335169   -0.044981
 C          2.008554   -2.152847    0.037165
 H         -0.910378   -2.349320    0.090999
 C        -10.419042    0.971970    0.043914
 C        -11.514761    0.111595    0.048708
 C        -11.455252   -1.366902    0.044366
 O        -10.456143   -2.080274    0.040389
 C        -12.853188   -1.853410    0.045208
 C        -13.295005   -3.168805    0.040910
 C        -14.667810   -3.377297    0.042628
 C        -15.550551   -2.291919    0.048629
 C        -15.105471   -0.973714    0.053198
 C        -13.724528   -0.749829    0.051367
 C        -12.914788    0.498025    0.055710
 C        -13.461355    1.782745    0.067027
 C        -14.863518    2.039060    0.071059
 N        -16.000519    2.300613    0.074575
 C        -12.701956    2.988978    0.077860
 N        -12.131681    4.007214    0.087707
 H        -10.659115    2.028651    0.043740
 H        -12.603299   -4.004425    0.036344
 F        -15.176240   -4.618395    0.038553
 F        -16.867178   -2.547811    0.050006
 H        -15.845874   -0.185748    0.057725
 C         10.419119   -0.972068   -0.043428
 C         11.514767   -0.111609   -0.047778
 C         11.455089    1.366877   -0.043194
 O         10.455891    2.080126   -0.039529
 C         12.852973    1.853535   -0.043298
 C         13.294642    3.168978   -0.038492
 C         14.667424    3.377622   -0.039524
 C         15.550288    2.292344   -0.045376
 C         15.105358    0.974091   -0.050466
 C         13.724438    0.750049   -0.049311
 C         12.914835   -0.497895   -0.054348
 C         13.461525   -1.782562   -0.065911
 C         14.863711   -2.038760   -0.069360
 N         16.000726   -2.300260   -0.072397
 C         12.702235   -2.988854   -0.077694
 N         12.132045   -4.007130   -0.088321
 H         10.659249   -2.028737   -0.043269
 H         12.602842    4.004521   -0.034058
 F         15.175714    4.618776   -0.034926
 F         16.866887    2.548382   -0.046074
 H         15.845851    0.186211   -0.054837
 C         -2.048615    2.921290   -1.384682
 C         -2.426214    4.265371   -1.480287
 C         -2.516588    4.901827   -2.721278
 C         -2.237046    4.223197   -3.911318
 C         -1.868575    2.873391   -3.813985
 C         -1.776170    2.236275   -2.580085
 H         -2.647647    4.835587   -0.585376
 H         -2.808993    5.948816   -2.757033
 H         -1.650788    2.310367   -4.718744
 H         -1.491327    1.188855   -2.551398
 C         -1.866833    3.050339    1.207778
 C         -0.926413    4.094290    1.237076
 C         -0.727182    4.852130    2.388162
 C         -1.454585    4.602875    3.561157
 C         -2.382441    3.557255    3.534353
 C         -2.584384    2.793060    2.382397
 H         -0.347864    4.328667    0.349042
 H          0.008597    5.653044    2.374052
 H         -2.958522    3.328270    4.427856
 H         -3.303937    1.981111    2.413322
 C          1.866936   -3.050414   -1.209057
 C          0.926383   -4.094243   -1.238446
 C          0.727162   -4.852052   -2.389551
 C          1.454701   -4.602878   -3.562481
 C          2.382684   -3.557377   -3.535590
 C          2.584618   -2.793209   -2.383611
 H          0.347729   -4.328550   -0.350460
 H         -0.008717   -5.652876   -2.375512
 H          2.958875   -3.328462   -4.429040
 H          3.304270   -1.981345   -2.414465
 C          2.048615   -2.921421    1.383404
 C          2.426023   -4.265561    1.478962
 C          2.516332   -4.902064    2.719933
 C          2.236916   -4.223423    3.909998
 C          1.868638   -2.873562    3.812710
 C          1.776297   -2.236399    2.578829
 H          2.647352   -4.835780    0.584027
 H          2.808586   -5.949096    2.755655
 H          1.650952   -2.310531    4.717487
 H          1.491603   -1.188937    2.550178
 C         -2.306469    4.917595   -5.250494
 H         -1.305457    5.198900   -5.603203
 H         -2.745880    4.267977   -6.015481
 C         -1.253627    5.447491    4.796774
 H         -1.620702    4.938247    5.693330
 H         -0.195644    5.687294    4.949436
 C          1.253708   -5.447444   -4.798129
 H          0.195627   -5.686543   -4.951229
 H          1.621504   -4.938504   -5.694561
 C          2.306276   -4.917864    5.249156
 H          2.745873   -4.268355    6.014128
 H          1.305227   -5.198964    5.601923
 H         -2.904195    5.832865   -5.196315
 H         -1.791915    6.401123    4.716836
 H          1.791309   -6.401436   -4.717894
 H          2.903806   -5.833258    5.194920
 S          8.095569    0.748569   -0.038419
 S         -8.095479   -0.748697    0.038332
 C          8.160479   -1.914910   -0.036525
 C         -8.160403    1.914777    0.036261
 H          8.551018   -2.925559   -0.030692
 H         -8.550950    2.925424    0.030457
 C          9.020376   -0.789029   -0.039850
 C         -9.020299    0.788896    0.039911
 N         -5.610880    2.228618    0.047674
 N          5.610958   -2.228732   -0.048537
 C         -5.460239    3.677645    0.045051
 H         -4.612442    3.957294    0.672336
 H         -5.307698    4.062003   -0.967718
 H         -6.363079    4.121885    0.468721
 C          5.460304   -3.677758   -0.045897
 H          5.307524   -4.062082    0.966848
 H          4.612649   -3.957419   -0.673370
 H          6.363239   -4.122017   -0.469342
       140
S1: Total Energy = -5545.93292228
 C         -6.825039    1.550275    0.028277
 C         -6.606452    0.145428    0.029458
 C         -5.228428   -0.036609    0.026938
 C         -4.618090    1.260926    0.019242
 C         -3.216993    1.198731    0.018084
 C         -2.777883   -0.135432    0.037157
 C         -1.363358   -0.224316    0.027728
 C         -0.854786    1.114400   -0.028673
 C          0.500804    1.344589   -0.057990
 S         -4.054161   -1.336360    0.045631
 C         -2.011673    2.147663   -0.047975
 H          0.908505    2.349272   -0.100476
 C          6.825035   -1.550278   -0.028332
 C          6.606449   -0.145432   -0.029530
 C          5.228425    0.036606   -0.027099
 C          4.618086   -1.260929   -0.019427
 C          3.216989   -1.198734   -0.018350
 C          2.777879    0.135429   -0.037446
 C          1.363354    0.224312   -0.028068
 C          0.854782   -1.114405    0.028323
 C         -0.500809   -1.344594    0.057638
 S          4.054159    1.336357   -0.045866
 C          2.011668   -2.147667    0.047646
 H         -0.908508   -2.349277    0.100137
 C        -10.430416    0.967250    0.043123
 C        -11.521904    0.111415    0.051659
 C        -11.462737   -1.368134    0.043086
 O        -10.463052   -2.080642    0.037142
 C        -12.860150   -1.852493    0.041490
 C        -13.302431   -3.167657    0.031857
 C        -14.675274   -3.376164    0.032053
 C        -15.558349   -2.289929    0.041981
 C        -15.114411   -0.972306    0.052215
 C        -13.731872   -0.746725    0.051809
 C        -12.927995    0.498400    0.062641
 C        -13.471472    1.784764    0.084527
 C        -14.872797    2.043878    0.088516
 N        -16.009883    2.306507    0.092062
 C        -12.709225    2.988369    0.109148
 N        -12.134528    4.004398    0.130753
 H        -10.668146    2.024703    0.041706
 H        -12.610615   -4.003184    0.024434
 F        -15.184284   -4.616966    0.022741
 F        -16.874634   -2.547138    0.041543
 H        -15.854717   -0.184259    0.059537
 C         10.430414   -0.967257   -0.042915
 C         11.521906   -0.111426   -0.051363
 C         11.462743    1.368123   -0.042799
 O         10.463061    2.080636   -0.036924
 C         12.860157    1.852478   -0.041095
 C         13.302443    3.167640   -0.031427
 C         14.675287    3.376142   -0.031514
 C         15.558358    2.289903   -0.041370
 C         15.114417    0.972283   -0.051638
 C         13.731876    0.746707   -0.051344
 C         12.927996   -0.498415   -0.062235
 C         13.471471   -1.784781   -0.084067
 C         14.872797   -2.043898   -0.087952
 N         16.009883   -2.306529   -0.091412
 C         12.709224   -2.988386   -0.108730
 N         12.134529   -4.004415   -0.130376
 H         10.668141   -2.024711   -0.041475
 H         12.610630    4.003170   -0.024058
 F         15.184301    4.616943   -0.022161
 F         16.874644    2.547108   -0.040825
 H         15.854720    0.184233   -0.058898
 C         -2.053652    2.909184   -1.398038
 C         -2.428685    4.253365   -1.500064
 C         -2.519696    4.883251   -2.744481
 C         -2.243687    4.197632   -3.931233
 C         -1.877794    2.847398   -3.827334
 C         -1.785046    2.216813   -2.590378
 H         -2.647492    4.828834   -0.607896
 H         -2.809740    5.930673   -2.785439
 H         -1.662640    2.279031   -4.729381
 H         -1.502881    1.168808   -2.556447
 C         -1.871657    3.050359    1.194489
 C         -0.933003    4.095919    1.220449
 C         -0.736082    4.858400    2.368895
 C         -1.464199    4.612376    3.542110
 C         -2.390340    3.565051    3.518550
 C         -2.589872    2.796094    2.369446
 H         -0.353996    4.327896    0.332074
 H         -0.001575    5.660415    2.352521
 H         -2.966844    3.338567    4.412403
 H         -3.308060    1.982988    2.402642
 C          1.871700   -3.050335   -1.194843
 C          0.932908   -4.095768   -1.220944
 C          0.736039   -4.858206   -2.369429
 C          1.464347   -4.612263   -3.542542
 C          2.390623   -3.565061   -3.518843
 C          2.590103   -2.796147   -2.369702
 H          0.353747   -4.327677   -0.332652
 H          0.001421   -5.660122   -2.353165
 H          2.967277   -3.338640   -4.412616
 H          3.308404   -1.983135   -2.402789
 C          2.053599   -2.909209    1.397700
 C          2.428777   -4.253348    1.499746
 C          2.519739   -4.883240    2.744163
 C          2.243537   -4.197669    3.930897
 C          1.877503   -2.847474    3.826981
 C          1.784803   -2.216883    2.590024
 H          2.647740   -4.828779    0.607592
 H          2.809900   -5.930629    2.785136
 H          1.662199   -2.279143    4.729015
 H          1.502526   -1.168909    2.556080
 C         -2.315870    4.883642   -5.274515
 H         -1.312847    5.121124   -5.652544
 H         -2.798412    4.245952   -6.023597
 C         -1.266157    5.462200    4.774584
 H         -1.624791    4.952033    5.674035
 H         -0.209929    5.712516    4.922150
 C          1.266360   -5.462044   -4.775054
 H          0.210124   -5.712257   -4.922742
 H          1.625141   -4.951893   -5.674456
 C          2.315667   -4.883689    5.274177
 H          2.798034   -4.245942    6.023323
 H          1.312635   -5.121319    5.652089
 H         -2.875596    5.822205   -5.215058
 H         -1.814000    6.410354    4.694239
 H          1.814104   -6.410251   -4.694667
 H          2.875533   -5.822172    5.214768
 S          8.100441    0.751820   -0.037899
 S         -8.100443   -0.751825    0.037925
 C          8.171415   -1.906137   -0.028599
 C         -8.171419    1.906132    0.028642
 H          8.561630   -2.917046   -0.021130
 H         -8.561635    2.917041    0.021212
 C          9.025712   -0.783289   -0.036245
 C         -9.025715    0.783284    0.036341
 N         -5.616254    2.221582    0.036369
 N          5.616251   -2.221585   -0.036493
 C         -5.465780    3.670514    0.026790
 H         -4.619349    3.953854    0.654351
 H         -5.311151    4.049935   -0.987562
 H         -6.369490    4.116998    0.446193
 C          5.465773   -3.670517   -0.026929
 H          5.311081   -4.049944    0.987411
 H          4.619380   -3.953852   -0.654545
 H          6.369508   -4.117001   -0.446279
