       126
S0: Total Energy = -4409.08208171
 C         -6.258904    0.612635    0.038066
 C         -5.352965    1.692772    0.056827
 C         -4.019059    1.295257    0.035168
 C         -3.881241   -0.086528   -0.000486
 C         -0.310737    0.655507   -0.004005
 C          0.513040    1.821061   -0.013477
 C          1.882000    1.732673   -0.001160
 S         -5.379375   -0.936477   -0.010947
 C         -2.646764    1.978523    0.022363
 H          2.494052    2.629523   -0.006798
 C          6.258881   -0.612618   -0.038124
 C          5.352947   -1.692760   -0.056873
 C          4.019040   -1.295252   -0.035183
 C          3.881214    0.086532    0.000472
 C          2.486475    0.454829    0.010762
 C          1.726914   -0.724833    0.011133
 C          0.310712   -0.655514    0.004027
 S          5.379343    0.936488    0.010887
 C          2.646749   -1.978525   -0.022337
 C         -2.575935    2.843897   -1.254608
 C         -3.322135    4.032818   -1.334341
 C         -3.353706    4.787950   -2.503062
 C         -2.647282    4.388242   -3.647341
 C         -1.917347    3.198798   -3.571247
 C         -1.881662    2.438132   -2.399430
 H         -3.881912    4.379467   -0.470657
 H         -3.941505    5.702834   -2.527382
 H         -1.365458    2.852075   -4.441929
 H         -1.310046    1.516783   -2.392930
 C         -2.410837    2.762165    1.340872
 C         -1.795921    4.017978    1.385869
 C         -1.563645    4.663530    2.603607
 C         -1.933724    4.082298    3.819523
 C         -2.541414    2.818805    3.773203
 C         -2.775566    2.173736    2.562479
 H         -1.495841    4.512986    0.468453
 H         -1.084653    5.639997    2.599727
 H         -2.837166    2.331836    4.699873
 H         -3.247110    1.195187    2.571018
 C          2.410799   -2.762186   -1.340831
 C          1.795895   -4.018006   -1.385798
 C          1.563592   -4.663573   -2.603523
 C          1.933631   -4.082350   -3.819455
 C          2.541309   -2.818852   -3.773166
 C          2.775489   -2.173767   -2.562455
 H          1.495849   -4.513010   -0.468370
 H          1.084611   -5.640046   -2.599618
 H          2.837030   -2.331890   -4.699849
 H          3.247024   -1.195214   -2.571019
 C          2.575978   -2.843885    1.254648
 C          3.322217   -4.032781    1.334377
 C          3.353858   -4.787890    2.503111
 C          2.647474   -4.388179    3.647413
 C          1.917513   -3.198751    3.571329
 C          1.881758   -2.438108    2.399499
 H          3.881972   -4.379430    0.470679
 H          3.941685   -5.702757    2.527424
 H          1.365659   -2.852020    4.442030
 H          1.310129   -1.516767    2.393013
 C         -2.665336    5.224634   -4.904792
 H         -1.998893    6.092536   -4.814033
 H         -2.335425    4.646945   -5.773946
 C         -1.709676    4.791692    5.133865
 H         -1.369507    4.097592    5.910447
 H         -0.963412    5.586601    5.037259
 C          1.709557   -4.791764   -5.133782
 H          0.963257   -5.586638   -5.037162
 H          1.369421   -4.097665   -5.910381
 C          2.665606   -5.224544    4.904880
 H          2.335724   -4.646844    5.774038
 H          1.999178   -6.092462    4.814171
 H         -3.669093    5.611239   -5.113710
 H         -2.636710    5.253480    5.498532
 H          2.636571   -5.253602   -5.498435
 H          3.669382   -5.611123    5.113759
 H          0.043239    2.794923   -0.030837
 C         -0.513068   -1.821065    0.013492
 H         -0.043272   -2.794928    0.030849
 C         -1.726937    0.724828   -0.011107
 C         -2.486502   -0.454831   -0.010755
 C         -1.882029   -1.732676    0.001166
 H         -2.494082   -2.629525    0.006792
 H          5.703896   -2.718381   -0.084748
 H         -5.703908    2.718394    0.084699
 C          7.654757   -0.851838   -0.056534
 C          8.774321   -0.041329   -0.044404
 H          7.847915   -1.918469   -0.086023
 C          8.771239    1.436688   -0.004706
 C         10.169962   -0.484371   -0.065530
 O          7.800627    2.186799    0.019588
 C         10.187130    1.866556   -0.000008
 C         11.019788    0.734729   -0.035635
 C         10.664267   -1.778309   -0.106556
 C         10.676777    3.165951    0.032981
 C         12.409248    0.908004   -0.038825
 C         12.058386   -2.088531   -0.119615
 C          9.855389   -2.954863   -0.141479
 C         12.054476    3.323576    0.029861
 H         10.015579    4.025350    0.060173
 C         12.900637    2.206753   -0.005589
 H         13.120794    0.094343   -0.065248
 N         13.183116   -2.393273   -0.131441
 N          9.243030   -3.946243   -0.171631
 F         12.608251    4.541947    0.060368
 F         14.223461    2.418396   -0.007112
 C         -7.654779    0.851862    0.056472
 C         -8.774341    0.041352    0.044305
 H         -7.847933    1.918492    0.086029
 C         -8.771242   -1.436662    0.004518
 C        -10.169986    0.484375    0.065508
 O         -7.800616   -2.186753   -0.019895
 C        -10.187127   -1.866551   -0.000113
 C        -11.019797   -0.734735    0.035613
 C        -10.664310    1.778304    0.106583
 C        -10.676760   -3.165950   -0.033134
 C        -12.409254   -0.908027    0.038880
 C        -12.058435    2.088500    0.119714
 C         -9.855452    2.954872    0.141470
 C        -12.054457   -3.323592   -0.029936
 H        -10.015555   -4.025340   -0.060405
 C        -12.900630   -2.206780    0.005616
 H        -13.120808   -0.094375    0.065382
 N        -13.183172    2.393211    0.131601
 N         -9.243114    3.946265    0.171599
 F        -12.608219   -4.541968   -0.060464
 F        -14.223451   -2.418439    0.007212
       126
T1: Total Energy = -4409.03283607
 C         -6.246272    0.610662    0.033046
 C         -5.325719    1.697570    0.054820
 C         -4.005511    1.298701    0.029190
 C         -3.860649   -0.099595   -0.008999
 C         -0.314188    0.658660   -0.001871
 C          0.520518    1.828885   -0.006537
 C          1.884438    1.743075    0.007280
 S         -5.377215   -0.947679   -0.019992
 C         -2.634729    1.984953    0.022828
 H          2.496249    2.639784    0.005843
 C          6.246275   -0.610778   -0.032987
 C          5.325730   -1.697694   -0.054636
 C          4.005522   -1.298829   -0.028918
 C          3.860658    0.099467    0.009261
 C          2.495197    0.462557    0.014495
 C          1.711234   -0.733320    0.010106
 C          0.314198   -0.658787    0.002191
 S          5.377220    0.947554    0.020247
 C          2.634737   -1.985081   -0.022446
 C         -2.561491    2.855629   -1.250384
 C         -3.298710    4.050534   -1.321502
 C         -3.328770    4.810507   -2.487079
 C         -2.630316    4.409872   -3.635867
 C         -1.910680    3.213454   -3.568373
 C         -1.877189    2.447383   -2.400268
 H         -3.853180    4.397561   -0.454721
 H         -3.909188    5.730126   -2.505116
 H         -1.366461    2.865230   -4.443188
 H         -1.315165    1.519991   -2.401150
 C         -2.407757    2.759901    1.346979
 C         -1.786335    4.012424    1.404436
 C         -1.559623    4.647805    2.627807
 C         -1.943048    4.060380    3.837540
 C         -2.557901    2.801510    3.778439
 C         -2.785844    2.165181    2.561436
 H         -1.477812    4.512459    0.492549
 H         -1.075282    5.621542    2.634466
 H         -2.864249    2.310570    4.699395
 H         -3.262558    1.189152    2.561377
 C          2.407719   -2.760139   -1.346518
 C          1.786216   -4.012625   -1.403875
 C          1.559476   -4.648093   -2.627197
 C          1.942950   -4.060796   -3.836975
 C          2.557882   -2.801958   -3.777975
 C          2.785850   -2.165542   -2.561025
 H          1.477641   -4.512559   -0.491952
 H          1.075069   -5.621799   -2.633779
 H          2.864266   -2.311114   -4.698970
 H          3.262623   -1.189541   -2.561039
 C          2.561573   -2.855655    1.250853
 C          3.298768   -4.050576    1.321991
 C          3.328924   -4.810463    2.487620
 C          2.630602   -4.409720    3.636452
 C          1.911005   -3.213283    3.568943
 C          1.877415   -2.447297    2.400782
 H          3.853141   -4.397685    0.455182
 H          3.909319   -5.730096    2.505667
 H          1.366894   -2.864969    4.443790
 H          1.315433   -1.519881    2.401667
 C         -2.646768    5.251588   -4.889581
 H         -1.972431    6.113205   -4.797652
 H         -2.325667    4.674882   -5.762609
 C         -1.726262    4.761704    5.157175
 H         -1.445903    4.054147    5.945087
 H         -0.939740    5.519390    5.083238
 C          1.726130   -4.762214   -5.156555
 H          0.939632   -5.519917   -5.082536
 H          1.445716   -4.054717   -5.944502
 C          2.647167   -5.251338    4.890229
 H          2.326137   -4.674567    5.763241
 H          1.972829   -6.112968    4.798424
 H         -3.648063    5.647703   -5.092037
 H         -2.640944    5.269740    5.490224
 H          2.640813   -5.270243   -5.489610
 H          3.648483   -5.647430    5.092631
 H          0.049314    2.802113   -0.020942
 C         -0.520508   -1.829012    0.006823
 H         -0.049304   -2.802241    0.021199
 C         -1.711223    0.733195   -0.009782
 C         -2.495187   -0.462683   -0.014218
 C         -1.884428   -1.743201   -0.007017
 H         -2.496242   -2.639909   -0.005629
 H          5.676752   -2.722679   -0.086379
 H         -5.676732    2.722559    0.086548
 C          7.633925   -0.856397   -0.052112
 C          8.763448   -0.040694   -0.039189
 H          7.827790   -1.922046   -0.083237
 C          8.763292    1.441446    0.001622
 C         10.148904   -0.480997   -0.061747
 O          7.792262    2.190627    0.027667
 C         10.178349    1.870369    0.004769
 C         11.005866    0.734184   -0.032683
 C         10.641305   -1.784599   -0.103343
 C         10.671482    3.167525    0.037807
 C         12.394551    0.903329   -0.037607
 C         12.032806   -2.096294   -0.118463
 C          9.833855   -2.959537   -0.136413
 C         12.050780    3.321678    0.032868
 H         10.013137    4.029113    0.066423
 C         12.890821    2.202283   -0.004354
 H         13.103709    0.087621   -0.065410
 N         13.158154   -2.402216   -0.132089
 N          9.225328   -3.954436   -0.165158
 F         12.607921    4.539959    0.063329
 F         14.215207    2.406896   -0.007730
 C         -7.633920    0.856311    0.052071
 C         -8.763491    0.040675    0.038930
 H         -7.827751    1.921968    0.083248
 C         -8.763471   -1.441457   -0.002212
 C        -10.148903    0.481103    0.061356
 O         -7.792512   -2.190740   -0.027945
 C        -10.178569   -1.870244   -0.005613
 C        -11.005986   -0.733986    0.031859
 C        -10.641126    1.784759    0.103343
 C        -10.671816   -3.167350   -0.038925
 C        -12.394688   -0.903006    0.036485
 C        -12.032578    2.096681    0.118213
 C         -9.833483    2.959541    0.137175
 C        -12.051129   -3.321377   -0.034284
 H        -10.013544   -4.028995   -0.067537
 C        -12.891072   -2.201910    0.002930
 H        -13.103780   -0.087242    0.064275
 N        -13.157867    2.402830    0.131628
 N         -9.224737    3.954287    0.166604
 F        -12.608376   -4.539602   -0.065042
 F        -14.215477   -2.406400    0.006006
       126
S1: Total Energy = -4409.01529757
 C         -6.246758    0.613351    0.033058
 C         -5.334889    1.695771    0.052581
 C         -4.006868    1.294936    0.029584
 C         -3.865330   -0.096856   -0.004318
 C         -0.313912    0.658433   -0.003725
 C          0.518416    1.827678   -0.014029
 C          1.883998    1.741467   -0.001831
 S         -5.377754   -0.943934   -0.014609
 C         -2.637933    1.981954    0.023245
 H          2.495928    2.637896   -0.006723
 C          6.246752   -0.613347   -0.033002
 C          5.334884   -1.695768   -0.052498
 C          4.006863   -1.294936   -0.029469
 C          3.865324    0.096855    0.004442
 C          2.492364    0.461972    0.008673
 C          1.713347   -0.731790    0.008939
 C          0.313906   -0.658436    0.003867
 S          5.377747    0.943935    0.014719
 C          2.637929   -1.981956   -0.023098
 C         -2.565141    2.854254   -1.248335
 C         -3.301278    4.050069   -1.315685
 C         -3.333259    4.811708   -2.480165
 C         -2.637976    4.411986   -3.631110
 C         -1.919415    3.214541   -3.567155
 C         -1.883925    2.446697   -2.400399
 H         -3.853237    4.396429   -0.447058
 H         -3.912757    5.731905   -2.495468
 H         -1.377705    2.867072   -4.443791
 H         -1.322932    1.518659   -2.404537
 C         -2.410186    2.752776    1.349374
 C         -1.785227    4.003492    1.409950
 C         -1.557880    4.634988    2.634898
 C         -1.944121    4.045406    3.843334
 C         -2.562502    2.788675    3.780874
 C         -2.791228    2.155812    2.562067
 H         -1.475360    4.505167    0.499427
 H         -1.071240    5.607510    2.644558
 H         -2.871109    2.296536    4.700351
 H         -3.270819    1.181294    2.559019
 C          2.410164   -2.752794   -1.349215
 C          1.785223   -4.003521   -1.409765
 C          1.557858   -4.635032   -2.634701
 C          1.944064   -4.045455   -3.843152
 C          2.562428   -2.788715   -3.780718
 C          2.791171   -2.155837   -2.561922
 H          1.475385   -4.505192   -0.499230
 H          1.071233   -5.607561   -2.644341
 H          2.871007   -2.296580   -4.700206
 H          3.270748   -1.181312   -2.558893
 C          2.565163   -2.854243    1.248494
 C          3.301284   -4.050069    1.315831
 C          3.333295   -4.811696    2.480318
 C          2.638059   -4.411951    3.631283
 C          1.919515   -3.214495    3.567341
 C          1.883996   -2.446663    2.400579
 H          3.853207   -4.396446    0.447188
 H          3.912779   -5.731902    2.495609
 H          1.377843   -2.867008    4.443993
 H          1.323020   -1.518615    2.404729
 C         -2.656322    5.255482   -4.883510
 H         -1.978386    6.114401   -4.792880
 H         -2.340791    4.678895   -5.758623
 C         -1.726830    4.743845    5.164203
 H         -1.470506    4.031690    5.956001
 H         -0.923855    5.484809    5.097901
 C          1.726754   -4.743912   -5.164009
 H          0.923790   -5.484885   -5.097682
 H          1.470406   -4.031768   -5.955809
 C          2.656437   -5.255434    4.883691
 H          2.340942   -4.678833    5.758809
 H          1.978487   -6.114346    4.793094
 H         -3.656927    5.655585   -5.081259
 H         -2.634240    5.271838    5.485962
 H          2.634165   -5.271896   -5.485781
 H          3.657044   -5.655546    5.081411
 H          0.047401    2.800948   -0.030779
 C         -0.518423   -1.827681    0.014168
 H         -0.047409   -2.800951    0.030919
 C         -1.713353    0.731787   -0.008795
 C         -2.492371   -0.461974   -0.008540
 C         -1.884005   -1.741469    0.001964
 H         -2.495936   -2.637898    0.006853
 H          5.684102   -2.721456   -0.080577
 H         -5.684105    2.721460    0.080645
 C          7.643441   -0.857439   -0.050568
 C          8.766104   -0.043911   -0.039555
 H          7.836525   -1.923555   -0.078698
 C          8.762246    1.438800    0.000948
 C         10.158084   -0.481518   -0.061629
 O          7.788494    2.185039    0.025652
 C         10.175387    1.870001    0.005901
 C         11.006100    0.733439   -0.030669
 C         10.651640   -1.786142   -0.105503
 C         10.665382    3.168076    0.039581
 C         12.395762    0.908006   -0.033700
 C         12.042705   -2.096702   -0.118273
 C          9.844414   -2.959881   -0.144245
 C         12.044542    3.326004    0.036452
 H         10.004670    4.027912    0.067270
 C         12.887550    2.208046    0.000305
 H         13.106822    0.093903   -0.060540
 N         13.169263   -2.400303   -0.129949
 N          9.232522   -3.953334   -0.177729
 F         12.598817    4.545834    0.067623
 F         14.211312    2.417162   -0.001265
 C         -7.643447    0.857445    0.050560
 C         -8.766109    0.043916    0.039502
 H         -7.836533    1.923562    0.078652
 C         -8.762247   -1.438795   -0.000981
 C        -10.158091    0.481523    0.061465
 O         -7.788493   -2.185033   -0.025623
 C        -10.175388   -1.869996   -0.006038
 C        -11.006103   -0.733435    0.030460
 C        -10.651649    1.786149    0.105280
 C        -10.665380   -3.168072   -0.039752
 C        -12.395766   -0.908002    0.033382
 C        -12.042715    2.096710    0.117944
 C         -9.844425    2.959888    0.144046
 C        -12.044540   -3.326001   -0.036728
 H        -10.004666   -4.027908   -0.067386
 C        -12.887551   -2.208042   -0.000655
 H        -13.106828   -0.093899    0.060155
 N        -13.169273    2.400312    0.129533
 N         -9.232536    3.953342    0.177547
 F        -12.598813   -4.545830   -0.067936
 F        -14.211313   -2.417158    0.000808
