       138
S0: Total Energy = -5436.51157281
 C         -8.175942    0.498487    0.012882
 C         -7.443730    1.706463    0.013187
 C         -6.067673    1.522464   -0.023921
 C         -5.722342    0.170881   -0.048650
 C         -4.300208    0.064191   -0.060161
 C         -3.710119    1.319808   -0.055376
 C         -0.486832   -0.518172   -0.033827
 C         -0.064992   -1.877335   -0.032240
 C          1.255072   -2.265311   -0.027869
 S         -7.069545   -0.900231   -0.037155
 H         -7.951366    2.663950    0.043841
 C          8.175957   -0.498476    0.012965
 C          7.443746   -1.706451    0.013253
 C          6.067688   -1.522452   -0.023857
 C          5.722356   -0.170870   -0.048544
 C          4.300222   -0.064182   -0.060029
 C          3.710133   -1.319800   -0.055276
 C          2.270472   -1.240262   -0.035935
 C          1.846077    0.115408   -0.037384
 C          0.486844    0.518180   -0.033805
 S          7.069559    0.900244   -0.036987
 H          7.951382   -2.663939    0.043870
 C         -9.588236    0.519637    0.050221
 C        -10.569778   -0.457048    0.056372
 C        -10.333181   -1.914101    0.021464
 O         -9.255582   -2.500955   -0.018426
 C        -11.662524   -2.564305    0.044434
 C        -11.940700   -3.924756    0.025050
 C        -13.276071   -4.298478    0.054527
 C        -14.287145   -3.329613    0.102325
 C        -14.006849   -1.968896    0.121358
 C        -12.662939   -1.578200    0.091416
 C        -12.014965   -0.239530    0.098702
 C        -12.707934    0.960917    0.138205
 C        -14.132749    1.046466    0.177887
 N        -15.291285    1.169047    0.211180
 C        -12.094553    2.250353    0.143135
 N        -11.644619    3.325791    0.148383
 H         -9.944400    1.543523    0.079560
 H        -11.152323   -4.668865   -0.011586
 F        -13.630210   -5.589762    0.038426
 F        -15.559984   -3.747557    0.129759
 H        -14.837591   -1.277817    0.158195
 C          9.588254   -0.519626    0.050254
 C         10.569798    0.457057    0.056388
 C         10.333206    1.914112    0.021500
 O          9.255608    2.500971   -0.018374
 C         11.662552    2.564311    0.044461
 C         11.940733    3.924761    0.025117
 C         13.276107    4.298477    0.054559
 C         14.287179    3.329605    0.102285
 C         14.006877    1.968889    0.121279
 C         12.662965    1.578200    0.091375
 C         12.014986    0.239533    0.098641
 C         12.707956   -0.960916    0.138026
 C         14.132775   -1.046467    0.177586
 N         15.291315   -1.169032    0.210790
 C         12.094576   -2.250354    0.142891
 N         11.644632   -3.325787    0.148085
 H          9.944418   -1.543513    0.079552
 H         11.152358    4.668875   -0.011468
 F         13.630251    5.589759    0.038486
 F         15.560020    3.747542    0.129683
 H         14.837618    1.277804    0.158060
 H         -0.824156   -2.655052   -0.029967
 C          0.065005    1.877343   -0.032206
 H          0.824168    2.655060   -0.029894
 C         -1.846064   -0.115400   -0.037434
 C         -2.270458    1.240270   -0.035978
 C         -1.255060    2.265320   -0.027861
 C          1.578934   -3.736514    0.005965
 H          2.285111   -4.020317   -0.779420
 H          2.026908   -4.022921    0.962240
 H          0.667856   -4.326653   -0.129021
 C         -1.578922    3.736524    0.006016
 H         -2.285121    4.020349   -0.779342
 H         -2.026871    4.022906    0.962311
 H         -0.667848    4.326666   -0.128978
 S          3.185071    1.258934   -0.048790
 S         -3.185058   -1.258927   -0.048896
 C         -4.811311    2.416510   -0.056538
 C          4.811327   -2.416503   -0.056466
 C          4.871474   -3.220219   -1.374477
 C          5.849442   -4.215375   -1.550048
 C          4.052821   -2.921757   -2.469247
 C          5.981474   -4.893402   -2.758198
 H          6.517524   -4.470402   -0.733234
 C          4.189379   -3.604260   -3.681407
 H          3.299630   -2.145140   -2.390868
 C          5.149909   -4.604830   -3.850718
 H          6.749546   -5.657438   -2.855104
 H          3.533551   -3.344755   -4.509162
 C          4.746316   -3.265941    1.239763
 C          4.569367   -4.651939    1.255278
 C          4.860689   -2.610400    2.477418
 C          4.517580   -5.357010    2.462363
 H          4.457556   -5.200042    0.327136
 C          4.805721   -3.314233    3.675490
 H          4.991954   -1.532166    2.506064
 C          4.637765   -4.707746    3.693371
 H          4.377850   -6.435260    2.436405
 H          4.895450   -2.772271    4.614359
 C         -4.746276    3.265924    1.239710
 C         -4.569455    4.651944    1.255228
 C         -4.860473    2.610353    2.477357
 C         -4.517618    5.357001    2.462311
 H         -4.457790    5.200055    0.327074
 C         -4.805453    3.314179    3.675439
 H         -4.991619    1.532105    2.506004
 C         -4.637636    4.707701    3.693326
 H         -4.377972    6.435263    2.436355
 H         -4.895027    2.772196    4.614309
 C         -4.871500    3.220239   -1.374532
 C         -4.052826    2.921868   -2.469287
 C         -5.849536    4.215361   -1.550085
 C         -4.189421    3.604410   -3.681446
 H         -3.299538    2.145344   -2.390912
 C         -5.981603    4.893403   -2.758199
 H         -6.517579    4.470381   -0.733235
 C         -5.150038    4.604865   -3.850757
 H         -3.533522    3.345024   -4.509180
 H         -6.749679    5.657447   -2.855055
 C          5.285088   -5.359375   -5.151879
 H          6.334876   -5.454087   -5.451891
 H          4.883192   -6.377208   -5.064022
 H          4.743998   -4.860002   -5.961555
 C          4.603344   -5.470290    4.996509
 H          4.254246   -6.497122    4.849725
 H          5.600420   -5.521642    5.452876
 H          3.942073   -4.987450    5.725254
 C         -4.603294    5.470271    4.996452
 H         -4.252712    6.496633    4.849912
 H         -5.600702    5.523012    5.451946
 H         -3.943312    4.986579    5.725788
 C         -5.285687    5.359139   -5.152027
 H         -6.335070    5.446993   -5.455634
 H         -4.890969    6.379594   -5.062324
 H         -4.738603    4.863677   -5.960060
       138
T1: Total Energy = -5436.46493310
 C         -8.157086   -0.494966   -0.010649
 C         -7.414049   -1.708923   -0.013103
 C         -6.047743   -1.519972    0.030009
 C         -5.695830   -0.156397    0.057626
 C         -4.296824   -0.050312    0.065155
 C         -3.688925   -1.325264    0.059111
 C         -0.492215    0.520424    0.037400
 C         -0.066662    1.884487    0.037060
 C          1.248611    2.272205    0.032402
 S         -7.060632    0.914293    0.044801
 H         -7.920218   -2.666489   -0.048190
 C          8.157117    0.494975   -0.010657
 C          7.414075    1.708923   -0.013102
 C          6.047766    1.519960    0.029982
 C          5.695865    0.156385    0.057555
 C          4.296853    0.050290    0.065066
 C          3.688952    1.325235    0.059059
 C          2.270876    1.243876    0.038722
 C          1.836748   -0.122666    0.040305
 C          0.492243   -0.520456    0.037363
 S          7.060670   -0.914293    0.044676
 H          7.920233    2.666497   -0.048142
 C         -9.565374   -0.522983   -0.048672
 C        -10.554470    0.458239   -0.055198
 C        -10.321004    1.919865   -0.020410
 O         -9.243885    2.507066    0.020171
 C        -11.650233    2.568073   -0.044539
 C        -11.932668    3.926865   -0.025998
 C        -13.270153    4.296976   -0.056650
 C        -14.275490    3.324256   -0.104621
 C        -13.990179    1.962872   -0.122782
 C        -12.646033    1.576471   -0.091754
 C        -11.990854    0.240963   -0.097900
 C        -12.682911   -0.968890   -0.137038
 C        -14.105488   -1.057167   -0.177557
 N        -15.264736   -1.181332   -0.211575
 C        -12.069870   -2.256238   -0.140205
 N        -11.623379   -3.334127   -0.144179
 H         -9.921167   -1.546220   -0.078858
 H        -11.146922    4.673801    0.010869
 F        -13.628098    5.588616   -0.041426
 F        -15.551066    3.735439   -0.133319
 H        -14.818660    1.269078   -0.159884
 C          9.565407    0.522999   -0.048659
 C         10.554501   -0.458219   -0.055164
 C         10.321036   -1.919842   -0.020291
 O          9.243917   -2.507040    0.020326
 C         11.650265   -2.568051   -0.044423
 C         11.932698   -3.926843   -0.025819
 C         13.270182   -4.296957   -0.056467
 C         14.275520   -3.324240   -0.104492
 C         13.990211   -1.962857   -0.122719
 C         12.646065   -1.576454   -0.091698
 C         11.990889   -0.240945   -0.097895
 C         12.682947    0.968900   -0.137115
 C         14.105524    1.057170   -0.177704
 N         15.264772    1.181324   -0.211775
 C         12.069911    2.256251   -0.140327
 N         11.623421    3.334140   -0.144309
 H          9.921196    1.546237   -0.078838
 H         11.146952   -4.673777    0.011097
 F         13.628126   -5.588596   -0.041179
 F         15.551096   -3.735426   -0.133179
 H         14.818692   -1.269065   -0.159857
 H         -0.826885    2.660902    0.036231
 C          0.066689   -1.884517    0.036969
 H          0.826912   -2.660933    0.036072
 C         -1.836718    0.122635    0.040374
 C         -2.270851   -1.243908    0.038741
 C         -1.248583   -2.272237    0.032336
 C          1.576615    3.741233    0.002791
 H          2.273148    4.021700    0.798148
 H          2.039551    4.024905   -0.947090
 H          0.665646    4.334006    0.124797
 C         -1.576580   -3.741265    0.002651
 H         -2.273112   -4.021778    0.797992
 H         -2.039514   -4.024889   -0.947245
 H         -0.665608   -4.334038    0.124626
 S          3.182050   -1.272421    0.054910
 S         -3.182016    1.272396    0.055045
 C         -4.794474   -2.418134    0.060447
 C          4.794490    2.418112    0.060413
 C          4.858833    3.226288    1.375318
 C          5.831736    4.228229    1.539993
 C          4.052785    2.923061    2.478091
 C          5.968693    4.909996    2.745381
 H          6.492396    4.484868    0.717861
 C          4.193987    3.609833    3.687096
 H          3.306270    2.139112    2.408791
 C          5.148098    4.618461    3.845405
 H          6.732221    5.679459    2.833993
 H          3.547925    3.346824    4.521326
 C          4.736311    3.258584   -1.241025
 C          4.556716    4.644655   -1.267500
 C          4.860627    2.593948   -2.473104
 C          4.511993    5.340262   -2.479614
 H          4.438340    5.199185   -0.344033
 C          4.812297    3.289192   -3.676705
 H          4.995270    1.516027   -2.494388
 C          4.642190    4.681869   -3.705506
 H          4.370513    6.418390   -2.462746
 H          4.909889    2.740748   -4.610886
 C         -4.736300   -3.258602   -1.240993
 C         -4.556637   -4.644665   -1.267479
 C         -4.860700   -2.593968   -2.473064
 C         -4.511929   -5.340265   -2.479597
 H         -4.438191   -5.199191   -0.344019
 C         -4.812386   -3.289206   -3.676670
 H         -4.995397   -1.516054   -2.494339
 C         -4.642210   -4.681875   -3.705481
 H         -4.370390   -6.418386   -2.462739
 H         -4.910044   -2.740765   -4.610845
 C         -4.858851   -3.226306    1.375352
 C         -4.052745   -2.923188    2.478097
 C         -5.831862   -4.228158    1.540043
 C         -4.193988   -3.609971    3.687105
 H         -3.306124   -2.139340    2.408785
 C         -5.968859   -4.909923    2.745412
 H         -6.492541   -4.484743    0.717909
 C         -5.148220   -4.618461    3.845440
 H         -3.547845   -3.347076    4.521307
 H         -6.732440   -5.679339    2.834015
 C          5.289052    5.377060    5.143421
 H          6.340273    5.473310    5.437763
 H          4.886260    6.394341    5.053870
 H          4.752269    4.879966    5.957287
 C          4.618490    5.435976   -5.013529
 H          4.231386    6.451287   -4.882960
 H          5.626221    5.518927   -5.441028
 H          3.995442    4.926845   -5.757601
 C         -4.618533   -5.435979   -5.013506
 H         -4.231265   -6.451233   -4.882976
 H         -5.626297   -5.519082   -5.440900
 H         -3.995638   -4.926757   -5.757643
 C         -5.289484   -5.376876    5.143531
 H         -6.340487   -5.468995    5.440031
 H         -4.891003   -6.395742    5.052869
 H         -4.749098   -4.882113    5.956425
       138
S1: Total Energy = -5436.44851678
 C         -8.157240   -0.495615   -0.007953
 C         -7.420995   -1.704647   -0.013154
 C         -6.047414   -1.515889    0.027246
 C         -5.699231   -0.158266    0.055805
 C         -4.292711   -0.052278    0.063417
 C         -3.688387   -1.324266    0.056504
 C         -0.492923    0.521316    0.037183
 C         -0.066694    1.886049    0.036965
 C          1.248189    2.273062    0.031672
 S         -7.060249    0.911642    0.047080
 H         -7.926178   -2.662739   -0.048241
 C          8.157280    0.495626   -0.007866
 C          7.421024    1.704650   -0.013091
 C          6.047443    1.515881    0.027286
 C          5.699273    0.158253    0.055845
 C          4.292754    0.052251    0.063459
 C          3.688421    1.324233    0.056533
 C          2.270597    1.243875    0.037421
 C          1.835475   -0.123836    0.039559
 C          0.492965   -0.521357    0.037196
 S          7.060301   -0.911643    0.047063
 H          7.926200    2.662746   -0.048157
 C         -9.572650   -0.521456   -0.045246
 C        -10.556385    0.456517   -0.049301
 C        -10.320090    1.917896   -0.006748
 O         -9.241181    2.502205    0.035711
 C        -11.647641    2.567491   -0.025097
 C        -11.927647    3.926457    0.002636
 C        -13.264596    4.299591   -0.023591
 C        -14.272203    3.328618   -0.076452
 C        -13.990587    1.967220   -0.104020
 C        -12.646092    1.576194   -0.077486
 C        -11.998404    0.242373   -0.093770
 C        -12.690996   -0.967702   -0.143844
 C        -14.113105   -1.055241   -0.185148
 N        -15.272913   -1.177710   -0.220306
 C        -12.077556   -2.253998   -0.160170
 N        -11.627990   -3.331036   -0.175274
 H         -9.927494   -1.545260   -0.076783
 H        -11.140331    4.671570    0.043215
 F        -13.620185    5.591893    0.000664
 F        -15.546705    3.743572   -0.100346
 H        -14.820405    1.275175   -0.144238
 C          9.572691    0.521477   -0.045085
 C         10.556424   -0.456496   -0.049164
 C         10.320120   -1.917876   -0.006739
 O          9.241209   -2.502178    0.035754
 C         11.647666   -2.567479   -0.025187
 C         11.927665   -3.926449    0.002413
 C         13.264610   -4.299589   -0.023905
 C         14.272221   -3.328619   -0.076722
 C         13.990613   -1.967216   -0.104149
 C         12.646122   -1.576183   -0.077522
 C         11.998444   -0.242355   -0.093626
 C         12.691048    0.967721   -0.143530
 C         14.113155    1.055250   -0.184890
 N         15.272963    1.177709   -0.220099
 C         12.077624    2.254028   -0.159580
 N         11.628072    3.331075   -0.174449
 H          9.927533    1.545283   -0.076565
 H         11.140345   -4.671561    0.042958
 F         13.620191   -5.591896    0.000217
 F         15.546719   -3.743579   -0.100712
 H         14.820434   -1.275174   -0.144337
 H         -0.826944    2.662328    0.036456
 C          0.066733   -1.886089    0.036985
 H          0.826983   -2.662369    0.036489
 C         -1.835434    0.123796    0.039533
 C         -2.270560   -1.243914    0.037406
 C         -1.248150   -2.273101    0.031677
 C          1.577974    3.741312    0.002050
 H          2.273112    4.020858    0.798991
 H          2.044123    4.023197   -0.946817
 H          0.667629    4.335527    0.121132
 C         -1.577931   -3.741352    0.002052
 H         -2.273062   -4.020901    0.798997
 H         -2.044085   -4.023233   -0.946813
 H         -0.667583   -4.335565    0.121125
 S          3.182039   -1.270719    0.054459
 S         -3.181991    1.270685    0.054421
 C         -4.796008   -2.415448    0.054323
 C          4.796026    2.415427    0.054331
 C          4.862441    3.228633    1.365785
 C          5.834989    4.232088    1.523804
 C          4.060274    2.928420    2.472316
 C          5.975554    4.917816    2.726561
 H          6.492289    4.486899    0.698415
 C          4.205232    3.619103    3.678568
 H          3.314081    2.143721    2.408120
 C          5.159119    4.629081    3.830355
 H          6.738656    5.688257    2.809973
 H          3.562207    3.358410    4.515863
 C          4.739166    3.250512   -1.250619
 C          4.554254    4.635924   -1.282748
 C          4.870569    2.581853   -2.479965
 C          4.511114    5.326884   -2.497460
 H          4.431251    5.193342   -0.361617
 C          4.823498    3.272512   -3.686176
 H          5.010183    1.504543   -2.496613
 C          4.648137    4.664424   -3.720607
 H          4.365759    6.404545   -2.485080
 H          4.926694    2.721173   -4.618022
 C         -4.739151   -3.250567   -1.250606
 C         -4.554339   -4.635993   -1.282689
 C         -4.870468   -2.581934   -2.479976
 C         -4.511203   -5.326991   -2.497379
 H         -4.431424   -5.193396   -0.361536
 C         -4.823399   -3.272632   -3.686165
 H         -5.010014   -1.504616   -2.496660
 C         -4.648132   -4.664556   -3.720549
 H         -4.365928   -6.404663   -2.484963
 H         -4.926526   -2.721313   -4.618030
 C         -4.862475   -3.228613    1.365798
 C         -4.060274   -2.928447    2.472301
 C         -5.835124   -4.231982    1.523851
 C         -4.205296   -3.619086    3.678586
 H         -3.313974   -2.143852    2.408066
 C         -5.975752   -4.917649    2.726621
 H         -6.492423   -4.486775    0.698456
 C         -5.159301   -4.628927    3.830424
 H         -3.562211   -3.358464    4.515856
 H         -6.738901   -5.688046    2.810041
 C          5.303736    5.392046    5.125373
 H          6.355910    5.491035    5.415318
 H          4.898865    6.408348    5.034081
 H          4.770918    4.896669    5.942877
 C          4.627054    5.413890   -5.031226
 H          4.225716    6.424557   -4.907809
 H          5.637786    5.508617   -5.449153
 H          4.018023    4.894174   -5.779504
 C         -4.627055   -5.414061   -5.031147
 H         -4.225811   -6.424760   -4.907683
 H         -5.637776   -5.508710   -5.449117
 H         -4.017944   -4.894419   -5.779412
 C         -5.304245   -5.391652    5.125547
 H         -6.356225   -5.486570    5.417617
 H         -4.903606   -6.409522    5.033195
 H         -4.767889   -4.898521    5.942087
