       132
S0: Total Energy = -5357.88296708
 C          7.974827    1.646812   -0.070262
 C          7.133579    2.773103   -0.117491
 C          5.783425    2.438526   -0.129028
 C          5.538490    1.046957   -0.094894
 C          4.160748    0.741363   -0.089333
 C          3.389146    1.887963   -0.115814
 C          0.581620   -0.433962   -0.015203
 C          0.397689   -1.848641   -0.014427
 C         -0.853140   -2.410800    0.038070
 S          7.021352    0.140206   -0.047417
 S          4.294610    3.377735   -0.160271
 C          3.267476   -0.504749   -0.050979
 H          7.526925    3.783361   -0.137973
 H         -0.973745   -3.490091    0.043311
 C         -7.974812   -1.646812    0.070178
 C         -7.133558   -2.773099    0.117339
 C         -5.783403   -2.438521    0.128787
 C         -5.538470   -1.046951    0.094672
 C         -4.160731   -0.741350    0.089083
 C         -3.389128   -1.887953    0.115520
 C         -1.983567   -1.564120    0.076111
 C         -1.864527   -0.168287    0.054925
 C         -0.581619    0.433988    0.014847
 S         -7.021344   -0.140201    0.047296
 S         -4.294587   -3.377724    0.159938
 C         -3.267451    0.504762    0.050714
 H         -7.526897   -3.783360    0.137812
 C          9.380223    1.819766   -0.045518
 C         10.458786    0.955879   -0.001871
 C         10.384124   -0.521042    0.017651
 O          9.379152   -1.224436    0.010672
 C         11.777651   -1.018209    0.045539
 C         12.204243   -2.339877    0.067169
 C         13.572678   -2.563159    0.089923
 C         14.471370   -1.487686    0.090612
 C         14.043008   -0.166506    0.069665
 C         12.663601    0.072939    0.046669
 C         11.873208    1.331694    0.023200
 C         12.429499    2.601358    0.031982
 C         13.836579    2.844401    0.055399
 N         14.974608    3.094824    0.073833
 C         11.678279    3.815836    0.023155
 N         11.113662    4.835674    0.018024
 H          9.626117    2.875549   -0.066387
 H         11.502490   -3.166963    0.066501
 F         14.067285   -3.807106    0.111354
 F         15.782463   -1.762377    0.112403
 H         14.792673    0.612612    0.071533
 C         -9.380208   -1.819774    0.045524
 C        -10.458787   -0.955899    0.001993
 C        -10.384146    0.521023   -0.017578
 O         -9.379183    1.224432   -0.010694
 C        -11.777682    1.018174   -0.045313
 C        -12.204294    2.339836   -0.066885
 C        -13.572735    2.563100   -0.089456
 C        -14.471414    1.487616   -0.090016
 C        -14.043032    0.166442   -0.069124
 C        -12.663618   -0.072984   -0.046322
 C        -11.873209   -1.331728   -0.022932
 C        -12.429501   -2.601394   -0.031643
 C        -13.836584   -2.844427   -0.054934
 N        -14.974619   -3.094832   -0.073266
 C        -11.678288   -3.815876   -0.022850
 N        -11.113696   -4.835728   -0.017742
 H         -9.626091   -2.875559    0.066387
 H        -11.502551    3.166931   -0.066317
 F        -14.067361    3.807042   -0.110825
 F        -15.782513    1.762290   -0.111622
 H        -14.792685   -0.612688   -0.070882
 C          3.560325   -1.328758   -1.324547
 C          4.714404   -2.125301   -1.407366
 C          5.044811   -2.797810   -2.582105
 C          4.241612   -2.702166   -3.726422
 C          3.100053   -1.897448   -3.647308
 C          2.764457   -1.222480   -2.472373
 H          5.363078   -2.234674   -0.544040
 H          5.946838   -3.404810   -2.607800
 H          2.457927   -1.790889   -4.518696
 H          1.874348   -0.603101   -2.461835
 C          3.465032   -1.274969    1.282218
 C          3.446202   -2.671539    1.370811
 C          3.575330   -3.318099    2.602739
 C          3.726709   -2.599037    3.791785
 C          3.734923   -1.199520    3.703059
 C          3.608086   -0.552154    2.477402
 H          3.339810   -3.275489    0.476181
 H          3.558900   -4.405231    2.631564
 H          3.843944   -0.605241    4.607608
 H          3.617031    0.533578    2.453642
 C         -3.465098    1.275038   -1.282419
 C         -3.446340    2.671611   -1.370953
 C         -3.575548    3.318218   -2.602850
 C         -3.726940    2.599197   -3.791919
 C         -3.735065    1.199675   -3.703254
 C         -3.608147    0.552264   -2.477631
 H         -3.339937    3.275526   -0.476301
 H         -3.559166    4.405352   -2.631627
 H         -3.844074    0.605433   -4.607829
 H         -3.617012   -0.533471   -2.453908
 C         -3.560219    1.328729    1.324341
 C         -4.714325    2.125223    1.407265
 C         -5.044662    2.797706    2.582038
 C         -4.241360    2.702094    3.726284
 C         -3.099767    1.897435    3.647063
 C         -2.764239    1.222492    2.472092
 H         -5.363072    2.234583    0.543994
 H         -5.946716    3.404663    2.607815
 H         -2.457555    1.790904    4.518391
 H         -1.874098    0.603162    2.461477
 C          4.586883   -3.456764   -4.988341
 H          4.214722   -4.489184   -4.947833
 H          4.143080   -2.984739   -5.870831
 C          3.897781   -3.297378    5.119909
 H          3.340822   -2.788599    5.914584
 H          3.553228   -4.335297    5.073624
 C         -3.898143    3.297595   -5.119994
 H         -3.552968    4.335317   -5.073885
 H         -3.341819    2.788463   -5.914883
 C         -4.586544    3.456669    4.988239
 H         -4.142974    2.984426    5.870731
 H         -4.214067    4.488982    4.947878
 H          5.670564   -3.510303   -5.138373
 H          4.952175   -3.314398    5.425782
 H         -4.952658    3.315235   -5.425423
 H         -5.670223    3.510516    5.138163
 H          1.266531   -2.490640   -0.056169
 C         -0.397676    1.848667    0.014071
 H         -1.266511    2.490681    0.055775
 C          1.864541    0.168296   -0.055265
 C          1.983587    1.564124   -0.076426
 C          0.853161    2.410808   -0.038396
 H          0.973767    3.490101   -0.043648
       132
T1: Total Energy = -5357.83591868
 C          7.950510   -1.658568    0.062646
 C          7.097693   -2.791677    0.101471
 C          5.757015   -2.454771    0.113498
 C          5.508530   -1.054106    0.088249
 C          4.148661   -0.748873    0.084052
 C          3.355894   -1.907993    0.103334
 C          0.587530    0.431897    0.017688
 C          0.405081    1.855359    0.027759
 C         -0.837674    2.423899   -0.019364
 S          7.005097   -0.148422    0.049302
 S          4.267663   -3.400425    0.139510
 C          3.261985    0.501679    0.052261
 H          7.491393   -3.801424    0.115326
 H         -0.953261    3.503452   -0.015989
 C         -7.950488    1.658529   -0.062547
 C         -7.097671    2.791639   -0.101331
 C         -5.756992    2.454735   -0.113364
 C         -5.508508    1.054071   -0.088157
 C         -4.148639    0.748838   -0.083972
 C         -3.355872    1.907958   -0.103233
 C         -1.978373    1.583150   -0.062695
 C         -1.855394    0.165094   -0.051287
 C         -0.587508   -0.431935   -0.017653
 S         -7.005073    0.148383   -0.049267
 S         -4.267641    3.400392   -0.139344
 C         -3.261965   -0.501715   -0.052232
 H         -7.491370    3.801387   -0.115147
 C          9.351507   -1.832407    0.038945
 C         10.434718   -0.959775    0.000846
 C         10.355009    0.519376   -0.012206
 O          9.345602    1.217001    0.000269
 C         11.745154    1.023829   -0.041853
 C         12.168012    2.345739   -0.060521
 C         13.537002    2.573349   -0.086601
 C         14.435748    1.500202   -0.093388
 C         14.009943    0.176202   -0.075162
 C         12.632368   -0.067007   -0.048801
 C         11.842028   -1.326579   -0.026245
 C         12.404000   -2.602155   -0.035636
 C         13.809895   -2.839562   -0.060329
 N         14.949950   -3.084963   -0.079914
 C         11.659793   -3.818498   -0.025383
 N         11.102878   -4.843643   -0.018926
 H          9.601079   -2.886782    0.053966
 H         11.464464    3.171348   -0.055274
 F         14.027793    3.820480   -0.105585
 F         15.747406    1.775439   -0.118473
 H         14.761546   -0.601045   -0.081890
 C         -9.351486    1.832374   -0.038846
 C        -10.434717    0.959760   -0.000826
 C        -10.355054   -0.519394    0.012160
 O         -9.345668   -1.217053   -0.000201
 C        -11.745215   -1.023806    0.041763
 C        -12.168112   -2.345704    0.060402
 C        -13.537111   -2.573274    0.086422
 C        -14.435825   -1.500101    0.093189
 C        -14.009980   -0.176113    0.075003
 C        -12.632396    0.067056    0.048696
 C        -11.842015    1.326604    0.026209
 C        -12.403933    2.602203    0.035639
 C        -13.809819    2.839677    0.060262
 N        -14.949860    3.085143    0.079785
 C        -11.659665    3.818509    0.025522
 N        -11.102682    4.843617    0.019147
 H         -9.601046    2.886754   -0.053795
 H        -11.464588   -3.171334    0.055168
 F        -14.027939   -3.820391    0.105366
 F        -15.747491   -1.775299    0.118218
 H        -14.761561    0.601155    0.081718
 C          3.559907    1.315754    1.331419
 C          4.709111    2.119268    1.412968
 C          5.043867    2.780867    2.592552
 C          4.250711    2.666604    3.742214
 C          3.115043    1.853262    3.664158
 C          2.775682    1.188017    2.485017
 H          5.350986    2.241749    0.546505
 H          5.941755    3.393785    2.617818
 H          2.481832    1.731150    4.539897
 H          1.891590    0.559763    2.476229
 C          3.463301    1.274626   -1.278239
 C          3.446280    2.671733   -1.363688
 C          3.575701    3.319725   -2.594156
 C          3.726828    2.602120   -3.784944
 C          3.733456    1.202923   -3.699028
 C          3.604923    0.553319   -2.474318
 H          3.341485    3.274450   -0.468046
 H          3.560607    4.406838   -2.621296
 H          3.842071    0.610175   -4.604450
 H          3.611373   -0.532531   -2.454518
 C         -3.463267   -1.274700    1.278248
 C         -3.446258   -2.671810    1.363656
 C         -3.575663   -3.319836    2.594107
 C         -3.726762   -2.602265    3.784919
 C         -3.733380   -1.203065    3.699044
 C         -3.604863   -0.553426    2.474350
 H         -3.341486   -3.274502    0.467995
 H         -3.560579   -4.406950    2.621216
 H         -3.841975   -0.610343    4.604485
 H         -3.611306    0.532424    2.454582
 C         -3.559919   -1.315744   -1.331412
 C         -4.709135   -2.119242   -1.412962
 C         -5.043930   -2.780792   -2.592563
 C         -4.250805   -2.666490   -3.742242
 C         -3.115130   -1.853159   -3.664187
 C         -2.775730   -1.187962   -2.485030
 H         -5.350990   -2.241746   -0.546488
 H         -5.941826   -3.393699   -2.617828
 H         -2.481945   -1.731014   -4.539940
 H         -1.891636   -0.559711   -2.476245
 C          4.601030    3.409571    5.009391
 H          4.223534    4.440425    4.981503
 H          4.165547    2.926385    5.889895
 C          3.901054    3.303962   -5.110568
 H          3.392411    2.766400   -5.918196
 H          3.506432    4.324480   -5.078230
 C         -3.900973   -3.304144    5.110526
 H         -3.506343   -4.324657    5.078158
 H         -3.392329   -2.766599    5.918164
 C         -4.601170   -3.409401   -5.009440
 H         -4.165646   -2.926226   -5.889929
 H         -4.223751   -4.440284   -4.981573
 H          5.685405    3.466916    5.152241
 H          4.961945    3.371295   -5.385519
 H         -4.961861   -3.371493    5.385483
 H         -5.685548   -3.466664   -5.152299
 H          1.277991    2.491373    0.074223
 C         -0.405057   -1.855397   -0.027704
 H         -1.277966   -2.491413   -0.074152
 C          1.855416   -0.165132    0.051324
 C          1.978396   -1.583187    0.062763
 C          0.837698   -2.423937    0.019441
 H          0.953284   -3.503490    0.016100
       132
S1: Total Energy = -5357.82032318
 C          7.953655   -1.657354    0.064539
 C          7.108390   -2.785513    0.106471
 C          5.760274   -2.447629    0.116290
 C          5.515064   -1.052737    0.085971
 C          4.147434   -0.747559    0.080395
 C          3.360862   -1.903342    0.104061
 C          0.587172    0.432726    0.015818
 C          0.403814    1.855359    0.023085
 C         -0.840434    2.422507   -0.023829
 S          7.008540   -0.147919    0.045026
 S          4.273217   -3.393496    0.144942
 C          3.261972    0.502223    0.042645
 H          7.500636   -3.795779    0.124442
 H         -0.957667    3.501726   -0.023250
 C         -7.953635    1.657281   -0.064577
 C         -7.108367    2.785440   -0.106448
 C         -5.760250    2.447560   -0.116172
 C         -5.515039    1.052668   -0.085828
 C         -4.147409    0.747493   -0.080161
 C         -3.360837    1.903278   -0.103786
 C         -1.978612    1.579859   -0.063143
 C         -1.855531    0.163242   -0.047816
 C         -0.587149   -0.432788   -0.015463
 S         -7.008517    0.147848   -0.044997
 S         -4.273193    3.393429   -0.144739
 C         -3.261948   -0.502287   -0.042351
 H         -7.500613    3.795705   -0.124457
 C          9.362706   -1.830060    0.042332
 C         10.440582   -0.960895    0.002813
 C         10.359412    0.519264   -0.014535
 O          9.348772    1.215277   -0.006124
 C         11.748463    1.023752   -0.042441
 C         12.170085    2.345825   -0.063235
 C         13.539055    2.575225   -0.086925
 C         14.439097    1.502446   -0.089438
 C         14.015808    0.178247   -0.069181
 C         12.637185   -0.068299   -0.045068
 C         11.853509   -1.326232   -0.021472
 C         12.415091   -2.603367   -0.027941
 C         13.820351   -2.841253   -0.049551
 N         14.961101   -3.085791   -0.066480
 C         11.670072   -3.818266   -0.017618
 N         11.110076   -4.842350   -0.010905
 H          9.610838   -2.884937    0.060604
 H         11.465444    3.170547   -0.061330
 F         14.028721    3.823038   -0.107579
 F         15.750372    1.780133   -0.112374
 H         14.768206   -0.598265   -0.072580
 C         -9.362688    1.830001   -0.042463
 C        -10.440598    0.960872   -0.003034
 C        -10.359522   -0.519294    0.014187
 O         -9.348926   -1.215372    0.005954
 C        -11.748607   -1.023697    0.041951
 C        -12.170311   -2.345746    0.062634
 C        -13.539296   -2.575066    0.086163
 C        -14.439274   -1.502233    0.088636
 C        -14.015904   -0.178059    0.068503
 C        -12.637263    0.068409    0.044548
 C        -11.853501    1.326293    0.021138
 C        -12.414963    2.603479    0.027726
 C        -13.820200    2.841518    0.049164
 N        -14.960919    3.086211    0.065951
 C        -11.669802    3.818294    0.017770
 N        -11.109641    4.842289    0.011353
 H         -9.610798    2.884885   -0.060746
 H        -11.465719   -3.170510    0.060757
 F        -14.029039   -3.822851    0.106695
 F        -15.750568   -1.779844    0.111413
 H        -14.768258    0.598495    0.071866
 C          3.563365    1.325462    1.314662
 C          4.710815    2.132466    1.384841
 C          5.049736    2.802457    2.558480
 C          4.262858    2.693344    3.712923
 C          3.129062    1.876190    3.646131
 C          2.785453    1.202510    2.473177
 H          5.348110    2.250682    0.514422
 H          5.946085    3.417843    2.575215
 H          2.500985    1.757705    4.526016
 H          1.903267    0.571427    2.473559
 C          3.457564    1.263953   -1.295068
 C          3.435728    2.660343   -1.391970
 C          3.559822    3.298020   -2.628108
 C          3.710241    2.570533   -3.813435
 C          3.721709    1.172349   -3.715761
 C          3.598418    0.532614   -2.485166
 H          3.332050    3.270294   -0.501126
 H          3.541424    4.384782   -2.664625
 H          3.830039    0.572350   -4.616349
 H          3.608656   -0.552945   -2.456130
 C         -3.457589   -1.263983    1.295375
 C         -3.435730   -2.660371    1.392317
 C         -3.559870   -3.298016    2.628466
 C         -3.710361   -2.570498    3.813767
 C         -3.721850   -1.172319    3.716053
 C         -3.598514   -0.532614    2.485446
 H         -3.331997   -3.270343    0.501495
 H         -3.541453   -4.384777    2.665015
 H         -3.830234   -0.572296    4.616620
 H         -3.608771    0.552944    2.456381
 C         -3.563289   -1.325558   -1.314358
 C         -4.710723   -2.132584   -1.384555
 C         -5.049599   -2.802604   -2.558190
 C         -4.262689   -2.693500   -3.712613
 C         -3.128910   -1.876325   -3.645804
 C         -2.785346   -1.202615   -2.472854
 H         -5.348040   -2.250795   -0.514152
 H         -5.945936   -3.418005   -2.574938
 H         -2.500810   -1.757847   -4.525674
 H         -1.903172   -0.571515   -2.473222
 C          4.617586    3.445254    4.973499
 H          4.233199    4.473472    4.942728
 H          4.191550    2.964101    5.859707
 C          3.879472    3.262300   -5.144854
 H          3.391770    2.703902   -5.951113
 H          3.460129    4.273301   -5.126992
 C         -3.879643   -3.262235    5.145195
 H         -3.460190   -4.273191    5.127409
 H         -3.392079   -2.703754    5.951480
 C         -4.617371   -3.445439   -4.973184
 H         -4.191235   -2.964353   -5.859379
 H         -4.233059   -4.473683   -4.942339
 H          5.702547    3.510269    5.108024
 H          4.941037    3.352814   -5.410428
 H         -4.941225   -3.352856    5.410670
 H         -5.702327   -3.510387   -5.107789
 H          1.276090    2.492420    0.066912
 C         -0.403792   -1.855421   -0.022729
 H         -1.276067   -2.492482   -0.066558
 C          1.855554   -0.163304    0.048152
 C          1.978636   -1.579922    0.063476
 C          0.840456   -2.422569    0.024174
 H          0.957691   -3.501788    0.023575
