       134
S0: Total Energy = -5508.34075850
 C          8.457165    1.443458    0.140627
 C          7.394105    2.356150    0.232504
 C          6.147698    1.736505    0.168526
 C          6.211593    0.338311    0.021064
 C          4.935463   -0.279740   -0.030209
 C          3.919071    0.655199    0.077519
 C         -0.124013   -0.667390   -0.236495
 C         -1.461682   -1.105616   -0.356308
 C         -2.526377   -0.277699   -0.031771
 S          7.858852   -0.225687   -0.038554
 S          4.496563    2.309066    0.225864
 C          4.578681   -1.759460   -0.121118
 H          7.556944    3.422591    0.341555
 C         -8.457161   -1.443455   -0.140578
 C         -7.394103   -2.356150   -0.232439
 C         -6.147695   -1.736503   -0.168515
 C         -6.211588   -0.338305   -0.021089
 C         -4.935456    0.279745    0.030165
 C         -3.919066   -0.655196   -0.077550
 C         -2.264136    1.057117    0.420979
 C         -0.974539    1.509884    0.555630
 C          0.124017    0.667400    0.236440
 S         -7.858844    0.225694    0.038556
 S         -4.496559   -2.309067   -0.225856
 C         -4.578671    1.759467    0.121049
 H         -7.556945   -3.422594   -0.341464
 C          9.793275    1.920118    0.192619
 C         11.034314    1.318890    0.135808
 C         11.288200   -0.132266   -0.009380
 O         10.462535   -1.034460   -0.094257
 C         12.756974   -0.307388   -0.033347
 C         13.464743   -1.496128   -0.158659
 C         14.848641   -1.411700   -0.158366
 C         15.488285   -0.170222   -0.035669
 C         14.779254    1.017198    0.090361
 C         13.380556    0.946193    0.091783
 C         12.333292    1.993850    0.206267
 C         12.595203    3.346016    0.355121
 C         13.914442    3.890410    0.413946
 N         14.969354    4.382539    0.467220
 C         11.594154    4.358207    0.470762
 N         10.818623    5.222702    0.569788
 H          9.799114    2.998787    0.301496
 H         12.962499   -2.452847   -0.253411
 F         15.605666   -2.509289   -0.275369
 F         16.827515   -0.148694   -0.042420
 H         15.338848    1.937905    0.180687
 C         -9.793273   -1.920116   -0.192539
 C        -11.034312   -1.318885   -0.135778
 C        -11.288207    0.132270    0.009416
 O        -10.462548    1.034474    0.094248
 C        -12.756981    0.307377    0.033463
 C        -13.464756    1.496108    0.158821
 C        -14.848653    1.411664    0.158614
 C        -15.488290    0.170179    0.035951
 C        -14.779254   -1.017232   -0.090132
 C        -13.380556   -0.946210   -0.091639
 C        -12.333288   -1.993853   -0.206204
 C        -12.595201   -3.346008   -0.355145
 C        -13.914442   -3.890402   -0.413919
 N        -14.969360   -4.382522   -0.467151
 C        -11.594154   -4.358182   -0.470960
 N        -10.818631   -5.222673   -0.570071
 H         -9.799112   -2.998792   -0.301342
 H        -12.962517    2.452832    0.253545
 F        -15.605684    2.509244    0.275669
 F        -16.827520    0.148634    0.042791
 H        -15.338841   -1.937946   -0.180422
 C          5.559906   -2.503628   -1.035342
 C          6.531291   -3.374222   -0.534719
 C          7.432401   -4.005205   -1.397404
 C          7.388014   -3.791332   -2.777627
 C          6.410374   -2.912920   -3.272558
 C          5.515077   -2.276238   -2.419988
 H          6.592346   -3.567986    0.530758
 H          8.180306   -4.676423   -0.982582
 H          6.352314   -2.724455   -4.342364
 H          4.766939   -1.604389   -2.828087
 C          4.427010   -2.415003    1.259956
 C          3.794012   -3.665772    1.344244
 C          3.634781   -4.301591    2.570598
 C          4.104583   -3.718232    3.758775
 C          4.739691   -2.476700    3.667245
 C          4.896376   -1.829710    2.437686
 H          3.422344   -4.136838    0.439541
 H          3.137762   -5.268484    2.609189
 H          5.116369   -1.999681    4.568922
 H          5.389168   -0.863184    2.410987
 C         -4.427001    2.414981   -1.260040
 C         -3.793980    3.665739   -1.344355
 C         -3.634756    4.301538   -2.570720
 C         -4.104594    3.718173   -3.758881
 C         -4.739716    2.476651   -3.667324
 C         -4.896393    1.829680   -2.437753
 H         -3.422284    4.136806   -0.439664
 H         -3.137713    5.268417   -2.609333
 H         -5.116410    1.999625   -4.568990
 H         -5.389195    0.863159   -2.411035
 C         -5.559898    2.503655    1.035254
 C         -6.531278    3.374247    0.534616
 C         -7.432385    4.005246    1.397288
 C         -7.388003    3.791395    2.777516
 C         -6.410372    2.912984    3.272463
 C         -5.515075    2.276284    2.419903
 H         -6.592329    3.567991   -0.530864
 H         -8.180288    4.676462    0.982457
 H         -6.352317    2.724531    4.342271
 H         -4.766945    1.604435    2.828015
 C          8.350019   -4.483503   -3.713876
 H          7.827664   -5.195475   -4.365549
 H          8.857173   -3.763804   -4.367351
 C          3.913055   -4.409275    5.088092
 H          4.482453   -3.915263    5.881332
 H          2.856950   -4.408306    5.387117
 C         -3.913116    4.409220   -5.088204
 H         -2.856946    4.408768   -5.386994
 H         -4.482100    3.914875   -5.881532
 C         -8.349998    4.483600    3.713751
 H         -8.857002    3.763947    4.367391
 H         -7.827662    5.195740    4.365257
 H          9.116115   -5.036710   -3.162196
 H          4.232089   -5.457142    5.043385
 H         -4.232690    5.456931   -5.043636
 H         -9.116212    5.036632    3.162058
 H         -1.651172   -2.114106   -0.715307
 C          1.461687    1.105624    0.356260
 H          1.651176    2.114111    0.715266
 C          0.974543   -1.509872   -0.555690
 C          2.264141   -1.057106   -0.421039
 C          2.526381    0.277706    0.031724
 H         -0.800884    2.520610    0.911632
 H          0.800886   -2.520595   -0.911699
 O         -3.291019    1.870275    0.814566
 O          3.291022   -1.870260   -0.814633
       134
T1: Total Energy = -5508.29089025
 C         -8.442373    1.450953   -0.145533
 C         -7.362065    2.364556   -0.252360
 C         -6.128702    1.744300   -0.188133
 C         -6.193292    0.334959   -0.023650
 C         -4.940024   -0.281218    0.027425
 C         -3.895873    0.657525   -0.088002
 C          0.124580   -0.678929    0.217242
 C          1.446435   -1.118899    0.331096
 C          2.531967   -0.275674    0.039049
 S         -7.855657   -0.220817    0.047866
 S         -4.475567    2.316228   -0.263434
 C         -4.591738   -1.762111    0.095548
 H         -7.524216    3.429507   -0.372222
 C          8.442368   -1.450957    0.145452
 C          7.362060   -2.364559    0.252253
 C          6.128698   -1.744298    0.188051
 C          6.193291   -0.334954    0.023607
 C          4.940022    0.281229   -0.027447
 C          3.895872   -0.657514    0.087964
 C          2.268025    1.077537   -0.384279
 C          0.983264    1.531181   -0.509634
 C         -0.124580    0.678949   -0.217251
 S          7.855656    0.220820   -0.047892
 S          4.475562   -2.316223    0.263350
 C          4.591739    1.762123   -0.095539
 H          7.524208   -3.429515    0.372081
 C         -9.769592    1.931083   -0.195880
 C        -11.020479    1.326510   -0.126632
 C        -11.273723   -0.125956    0.030953
 O        -10.444667   -1.025139    0.119440
 C        -12.741344   -0.304066    0.061561
 C        -13.449038   -1.490555    0.197639
 C        -14.834209   -1.405498    0.201244
 C        -15.470699   -0.165073    0.071700
 C        -14.759861    1.022350   -0.065241
 C        -13.362547    0.950481   -0.070629
 C        -12.311301    1.994654   -0.195264
 C        -12.573491    3.354173   -0.350932
 C        -13.891290    3.896685   -0.407285
 N        -14.947826    4.387654   -0.458970
 C        -11.576118    4.365987   -0.475112
 N        -10.804501    5.234356   -0.581542
 H         -9.777349    3.008066   -0.314520
 H        -12.947587   -2.447197    0.297707
 F        -15.591497   -2.503479    0.328735
 F        -16.810469   -0.139245    0.082132
 H        -15.319041    1.942845   -0.160436
 C          9.769587   -1.931093    0.195778
 C         11.020475   -1.326521    0.126574
 C         11.273725    0.125952   -0.030938
 O         10.444673    1.025140   -0.119405
 C         12.741347    0.304061   -0.061503
 C         13.449047    1.490555   -0.197505
 C         14.834218    1.405497   -0.201081
 C         15.470703    0.165064   -0.071585
 C         14.759860   -1.022364    0.065279
 C         13.362545   -0.950494    0.070640
 C         12.311296   -1.994671    0.195199
 C         12.573479   -3.354197    0.350806
 C         13.891277   -3.896713    0.407176
 N         14.947811   -4.387686    0.458869
 C         11.576101   -4.366017    0.474898
 N         10.804480   -5.234391    0.581261
 H          9.777340   -3.008082    0.314368
 H         12.947600    2.447203   -0.297538
 F         15.591510    2.503483   -0.328499
 F         16.810473    0.139234   -0.081989
 H         15.319036   -1.942866    0.160441
 C         -5.564281   -2.514461    1.011110
 C         -6.538765   -3.381567    0.510769
 C         -7.431261   -4.021057    1.375979
 C         -7.374556   -3.819371    2.757613
 C         -6.393221   -2.944603    3.251947
 C         -5.506372   -2.299348    2.397263
 H         -6.609545   -3.565271   -0.555820
 H         -8.182392   -4.689021    0.961943
 H         -6.325751   -2.765791    4.322780
 H         -4.755239   -1.630643    2.805348
 C         -4.460438   -2.394356   -1.299536
 C         -3.816810   -3.637537   -1.411814
 C         -3.676253   -4.256111   -2.649230
 C         -4.174581   -3.662325   -3.820432
 C         -4.819372   -2.428227   -3.700500
 C         -4.958931   -1.798575   -2.460072
 H         -3.423658   -4.117097   -0.520922
 H         -3.171883   -5.218012   -2.709498
 H         -5.218634   -1.943473   -4.588122
 H         -5.462778   -0.838759   -2.412490
 C          4.460439    2.394341    1.299558
 C          3.816826    3.637529    1.411858
 C          3.676266    4.256076    2.649286
 C          4.174580    3.662258    3.820479
 C          4.819349    2.428153    3.700525
 C          4.958912    1.798526    2.460084
 H          3.423683    4.117111    0.520975
 H          3.171901    5.217980    2.709571
 H          5.218591    1.943370    4.588142
 H          5.462740    0.838701    2.412487
 C          5.564283    2.514491   -1.011085
 C          6.538777    3.381575   -0.510724
 C          7.431276    4.021080   -1.375919
 C          7.374564    3.819432   -2.757558
 C          6.393221    2.944685   -3.251913
 C          5.506368    2.299414   -2.397243
 H          6.609563    3.565248    0.555870
 H          8.182416    4.689025   -0.961867
 H          6.325748    2.765899   -4.322750
 H          4.755231    1.630724   -2.805343
 C         -8.327747   -4.520342    3.696124
 H         -7.798784   -5.236771    4.337449
 H         -8.830023   -3.806450    4.359581
 C         -4.003570   -4.334923   -5.161795
 H         -4.591944   -3.835507   -5.937519
 H         -2.953432   -4.321878   -5.480764
 C          4.003604    4.334854    5.161849
 H          2.953388    4.322339    5.480574
 H          4.591549    3.835087    5.937672
 C          8.327747    4.520434   -3.696053
 H          8.829860    3.806590   -4.359684
 H          7.798809    5.237041   -4.337201
 H         -9.097782   -5.069936    3.146445
 H         -4.313649   -5.385690   -5.124034
 H          4.314240    5.385464    5.124228
 H          9.097910    5.069840   -3.146365
 H          1.636111   -2.136183    0.663060
 C         -1.446435    1.118916   -0.331115
 H         -1.636111    2.136197   -0.663087
 C         -0.983265   -1.531159    0.509632
 C         -2.268025   -1.077516    0.384276
 C         -2.531968    0.275691   -0.039068
 H          0.808983    2.548617   -0.844968
 H         -0.808983   -2.548593    0.844972
 O          3.293833    1.891756   -0.767543
 O         -3.293832   -1.891730    0.767553
       134
S1: Total Energy = -5508.27499961
 C         -8.441239    1.452144   -0.127345
 C         -7.368867    2.363103   -0.225075
 C         -6.129327    1.739354   -0.164472
 C         -6.196090    0.334369   -0.011702
 C         -4.936693   -0.283879    0.036371
 C         -3.897660    0.653805   -0.072789
 C          0.126887   -0.683825    0.208576
 C          1.450568   -1.122639    0.315119
 C          2.530846   -0.275137    0.034123
 S         -7.855670   -0.220542    0.055506
 S         -4.478158    2.312305   -0.233066
 C         -4.597315   -1.765084    0.096893
 H         -7.528832    3.429280   -0.336841
 C          8.441157   -1.452004    0.127571
 C          7.368764   -2.362934    0.225364
 C          6.129234   -1.739165    0.164767
 C          6.196021   -0.334187    0.011941
 C          4.936633    0.284082   -0.036152
 C          3.897587   -0.653579    0.073100
 C          2.262818    1.088270   -0.369699
 C          0.976387    1.541657   -0.488185
 C         -0.126957    0.684076   -0.208199
 S          7.855611    0.220688   -0.055309
 S          4.478056   -2.312093    0.233335
 C          4.597276    1.765295   -0.096674
 H          7.528708   -3.429113    0.337149
 C         -9.776163    1.933200   -0.178400
 C        -11.021686    1.330238   -0.117818
 C        -11.274435   -0.123359    0.032725
 O        -10.444769   -1.022336    0.121580
 C        -12.741415   -0.302127    0.055691
 C        -13.448614   -1.489527    0.183512
 C        -14.834206   -1.406081    0.180809
 C        -15.471274   -0.165361    0.053258
 C        -14.761829    1.023403   -0.075363
 C        -13.363106    0.954202   -0.074537
 C        -12.317036    1.998923   -0.189861
 C        -12.578219    3.360101   -0.341957
 C        -13.895002    3.903038   -0.403596
 N        -14.951924    4.393799   -0.459244
 C        -11.579784    4.370969   -0.456665
 N        -10.804895    5.238050   -0.555266
 H         -9.781879    3.011098   -0.290414
 H        -12.946555   -2.446036    0.282053
 F        -15.591105   -2.505574    0.300138
 F        -16.811273   -0.141704    0.057439
 H        -15.321323    1.943832   -0.169462
 C          9.776065   -1.933130    0.178552
 C         11.021652   -1.330302    0.117848
 C         11.274590    0.123267   -0.032707
 O         10.445052    1.022377   -0.121405
 C         12.741590    0.301819   -0.056022
 C         13.448942    1.489106   -0.184041
 C         14.834523    1.405445   -0.181677
 C         15.471431    0.164630   -0.054243
 C         14.761832   -1.024020    0.074590
 C         13.363121   -0.954596    0.074091
 C         12.316932   -1.999155    0.189692
 C         12.578011   -3.360347    0.341825
 C         13.894770   -3.903377    0.403185
 N         14.951711   -4.394123    0.458616
 C         11.579522   -4.371125    0.456853
 N         10.804634   -5.238178    0.555705
 H          9.781700   -3.011024    0.290597
 H         12.947006    2.445690   -0.282484
 F         15.591562    2.504816   -0.301234
 F         16.811425    0.140765   -0.058755
 H         15.321200   -1.944539    0.168586
 C         -5.553091   -2.509558    1.035916
 C         -6.539822   -3.376502    0.560363
 C         -7.416032   -4.008524    1.447549
 C         -7.331129   -3.798163    2.826336
 C         -6.336889   -2.923934    3.295648
 C         -5.466169   -2.286236    2.419323
 H         -6.632449   -3.566883   -0.503325
 H         -8.176472   -4.677703    1.053053
 H         -6.246131   -2.740402    4.363929
 H         -4.704412   -1.618113    2.808560
 C         -4.498273   -2.399704   -1.299980
 C         -3.885442   -3.658022   -1.420373
 C         -3.770495   -4.276353   -2.660195
 C         -4.265429   -3.667922   -3.825695
 C         -4.876544   -2.417890   -3.697751
 C         -4.990456   -1.787951   -2.454672
 H         -3.494736   -4.148786   -0.534531
 H         -3.288673   -5.249289   -2.727248
 H         -5.269077   -1.920135   -4.581074
 H         -5.468178   -0.815307   -2.401194
 C          4.498348    2.399913    1.300203
 C          3.885513    3.658224    1.420657
 C          3.770675    4.276546    2.660494
 C          4.265732    3.668116    3.825943
 C          4.876860    2.418097    3.697934
 C          4.990662    1.788167    2.454841
 H          3.494715    4.148986    0.534855
 H          3.288843    5.249473    2.727598
 H          5.269490    1.920346    4.581216
 H          5.468404    0.815534    2.401304
 C          5.552995    2.509764   -1.035758
 C          6.539753    3.376710   -0.560266
 C          7.415906    4.008738   -1.447505
 C          7.330917    3.798380   -2.826286
 C          6.336648    2.924153   -3.295539
 C          5.465981    2.286453   -2.419162
 H          6.632445    3.567088    0.503417
 H          8.176370    4.677915   -1.053055
 H          6.245823    2.740624   -4.363815
 H          4.704199    1.618333   -2.808353
 C         -8.273286   -4.482481    3.787868
 H         -7.725548   -5.099119    4.511086
 H         -8.852232   -3.750587    4.364308
 C         -4.136025   -4.349123   -5.167287
 H         -4.575577   -3.744894   -5.966540
 H         -3.084490   -4.530297   -5.421679
 C          4.136452    4.349312    5.167550
 H          3.084943    4.530546    5.422009
 H          4.576018    3.745049    5.966769
 C          8.273005    4.482711   -3.787876
 H          8.851829    3.750825   -4.364449
 H          7.725223    5.099450   -4.510975
 H         -8.980719   -5.130046    3.261352
 H         -4.637877   -5.324484   -5.167890
 H          4.638362    5.324643    5.168130
 H          8.980548    5.130182   -3.261392
 H          1.641694   -2.144061    0.632545
 C         -1.450638    1.122889   -0.314751
 H         -1.641763    2.144316   -0.632161
 C         -0.976458   -1.541409    0.488552
 C         -2.262888   -1.088030    0.370036
 C         -2.530916    0.275379   -0.033778
 H          0.800811    2.564282   -0.805972
 H         -0.800881   -2.564032    0.806344
 O          3.281373    1.910665   -0.736320
 O         -3.281453   -1.910428    0.736628
