       157
S0: Total Energy = -5860.48394715
 C         -4.432196    1.091658    0.036027
 C         -3.812044    2.335593    0.028467
 C         -2.400191    2.150131    0.030680
 C         -2.081252    0.786475    0.052114
 C         -0.671040    0.595627    0.023732
 C          0.003703    1.814938    0.000148
 C          1.433733    1.659085   -0.008866
 C          1.688702    0.265406    0.024088
 C          2.990323   -0.205945    0.037284
 S         -1.028928    3.211656   -0.004685
 C          0.369457   -0.550812    0.015862
 H          3.207480   -1.268829    0.066183
 C          7.935656    0.349451    0.043325
 C          7.488708    1.687813    0.023467
 C          6.103609    1.809832    0.021402
 C          5.462541    0.572172    0.030908
 C          4.030617    0.736872    0.011610
 C          3.773847    2.134880   -0.032477
 C          2.470512    2.604797   -0.035343
 S          6.545802   -0.767837    0.049736
 C          5.086673    2.951863   -0.038268
 H          2.254551    3.668763   -0.051310
 C         -9.738900    1.490239   -0.103312
 C        -10.698738    0.491986   -0.120488
 C        -10.433461   -0.961409   -0.088601
 O         -9.346275   -1.529110   -0.049726
 C        -11.750529   -1.636629   -0.111856
 C        -12.002131   -3.002233   -0.093351
 C        -13.329946   -3.401908   -0.121654
 C        -14.359607   -2.452830   -0.167382
 C        -14.105826   -1.086902   -0.186241
 C        -12.769680   -0.670094   -0.157468
 C        -12.147381    0.680759   -0.166692
 C        -12.864578    1.867311   -0.214421
 C        -14.290683    1.924200   -0.253876
 N        -15.451526    2.023623   -0.286792
 C        -12.277821    3.168775   -0.231931
 N        -11.850253    4.253258   -0.249079
 H        -10.118961    2.505493   -0.125999
 H        -11.199175   -3.730672   -0.058329
 F        -13.658923   -4.700044   -0.106100
 F        -15.624264   -2.895443   -0.193104
 H        -14.949901   -0.412118   -0.221652
 C          9.320157    0.060198    0.050323
 C         10.065448   -1.105690    0.062850
 C          9.519749   -2.478763    0.073274
 O          8.341233   -2.820848    0.081991
 C         10.678982   -3.399200    0.071159
 C         10.657363   -4.787844    0.075353
 C         11.881209   -5.440246    0.070124
 C         13.078091   -4.711603    0.061002
 C         13.097774   -3.322511    0.057416
 C         11.869017   -2.651486    0.062681
 C         11.525004   -1.204805    0.061767
 C         12.460909   -0.181850    0.063121
 C         13.871386   -0.405337    0.060445
 N         15.029568   -0.535327    0.058352
 C         12.141475    1.210002    0.070431
 N         11.937551    2.357739    0.077730
 H          9.891581    0.981784    0.040326
 H          9.726624   -5.344839    0.082010
 F         11.948812   -6.777564    0.073323
 F         14.231337   -5.393844    0.055653
 H         14.058476   -2.826436    0.050212
 C          0.247104   -1.413623    1.292693
 C         -0.394379   -2.658605    1.299961
 C         -0.515180   -3.401155    2.474630
 C         -0.006592   -2.929933    3.690426
 C          0.620090   -1.677622    3.685949
 C          0.745644   -0.934793    2.512984
 H         -0.794815   -3.063929    0.378482
 H         -1.016930   -4.365754    2.440955
 H          1.022978   -1.276492    4.613344
 H          1.243788    0.029231    2.553937
 C          0.383792   -1.354612   -1.305353
 C          1.095477   -2.560701   -1.404468
 C          1.227969   -3.221793   -2.624596
 C          0.663610   -2.705407   -3.797784
 C         -0.034226   -1.496476   -3.699224
 C         -0.171545   -0.833299   -2.480009
 H          1.552634   -2.996708   -0.522062
 H          1.785856   -4.154899   -2.663061
 H         -0.483214   -1.062520   -4.589625
 H         -0.720783    0.101315   -2.451823
 C          5.107118    3.862696    1.207711
 C          4.516234    5.134362    1.168836
 C          4.453856    5.932593    2.310042
 C          4.980653    5.496930    3.533150
 C          5.563445    4.224637    3.570034
 C          5.625402    3.420690    2.431163
 H          4.109543    5.513061    0.235897
 H          3.989692    6.914311    2.245938
 H          5.978501    3.852617    4.504123
 H          6.082093    2.438598    2.504197
 C          5.320065    3.738413   -1.346992
 C          6.358715    4.681674   -1.412371
 C          6.650603    5.347897   -2.599379
 C          5.918566    5.102554   -3.770706
 C          4.890105    4.157727   -3.703946
 C          4.594595    3.484669   -2.515471
 H          6.941780    4.904683   -0.523400
 H          7.462224    6.072019   -2.615942
 H          4.305965    3.938191   -4.594861
 H          3.792240    2.754455   -2.511069
 C         -0.111454   -3.753080    4.952540
 H          0.654217   -4.539741    4.979686
 H          0.024029   -3.134909    5.845882
 C          0.782359   -3.437810   -5.113535
 H          0.800815   -2.741829   -5.959018
 H          1.692061   -4.046147   -5.153010
 C          4.946177    6.379496    4.758585
 H          4.064941    7.029797    4.759248
 H          4.933376    5.786364    5.678956
 C          6.221905    5.849372   -5.048205
 H          5.782370    5.349801   -5.917284
 H          5.819696    6.870621   -5.017033
 H         -1.085447   -4.249536    5.025779
 H         -0.068480   -4.114620   -5.269768
 H          5.829448    7.030529    4.803529
 H          7.301556    5.934876   -5.214928
 C         -5.832544    1.220724    0.015373
 C         -6.256271    2.571371   -0.010407
 C         -7.635049    2.728328   -0.051224
 H         -8.156576    3.678699   -0.074673
 C         -8.326020    1.500366   -0.061355
 S         -4.899631    3.696970    0.003689
 S         -7.185649    0.128168   -0.013760
 H          8.190806    2.514504    0.009184
 C         -3.394712   -0.044601    0.094842
 C         -3.514222   -0.967060   -1.138476
 C         -3.222639   -2.335076   -1.081242
 C         -3.891691   -0.433138   -2.378965
 C         -3.322503   -3.139687   -2.216321
 H         -2.928539   -2.784885   -0.140536
 C         -3.986172   -1.239411   -3.511942
 H         -4.119411    0.625295   -2.466097
 C         -3.711287   -2.611462   -3.452605
 H         -3.092974   -4.199735   -2.134636
 H         -4.287118   -0.792977   -4.457096
 C         -3.627894   -0.747485    1.454033
 C         -4.644128   -1.704582    1.594919
 C         -2.944013   -0.350497    2.609735
 C         -4.950036   -2.251492    2.840905
 H         -5.199793   -2.042280    0.726203
 C         -3.256430   -0.897470    3.853363
 H         -2.150294    0.385363    2.545872
 C         -4.266362   -1.856561    3.996742
 H         -5.739352   -2.996393    2.911126
 H         -2.695987   -0.573932    4.727345
 C         -3.856436   -3.493938   -4.669717
 H         -3.738094   -2.921750   -5.595696
 H         -3.115444   -4.300698   -4.669573
 H         -4.847927   -3.964972   -4.702353
 C         -4.619675   -2.425049    5.351076
 H         -5.094175   -3.407715    5.261822
 H         -3.732752   -2.530834    5.985272
 H         -5.322398   -1.771172    5.884686
       157
T1: Total Energy = -5860.44406362
 C         -4.412806    1.099097    0.069120
 C         -3.769399    2.368265    0.073327
 C         -2.395683    2.181475    0.064557
 C         -2.063934    0.782805    0.073080
 C         -0.685776    0.594410    0.025778
 C          0.014354    1.832967    0.004991
 C          1.414691    1.671341   -0.012166
 C          1.674411    0.265419    0.013529
 C          2.969091   -0.204580    0.022346
 S         -1.014353    3.246347    0.024098
 C          0.355957   -0.550713    0.006029
 H          3.186977   -1.267188    0.046678
 C          7.909918    0.341381    0.032678
 C          7.465232    1.686003    0.011641
 C          6.085247    1.811816    0.005844
 C          5.432947    0.572573    0.014716
 C          4.016929    0.740331   -0.002366
 C          3.757405    2.150282   -0.043025
 C          2.465347    2.621135   -0.039159
 S          6.518446   -0.774824    0.036607
 C          5.075213    2.959607   -0.052263
 H          2.248987    3.684943   -0.050742
 C         -9.701427    1.495090   -0.087573
 C        -10.662242    0.484787   -0.116396
 C        -10.388582   -0.970007   -0.095625
 O         -9.296515   -1.529193   -0.056218
 C        -11.699501   -1.655057   -0.131137
 C        -11.944267   -3.020934   -0.126350
 C        -13.271189   -3.427823   -0.164714
 C        -14.302314   -2.483043   -0.206489
 C        -14.054456   -1.113822   -0.211563
 C        -12.721795   -0.690726   -0.172755
 C        -12.102418    0.662218   -0.166430
 C        -12.828763    1.853401   -0.205194
 C        -14.252788    1.901893   -0.249023
 N        -15.415218    1.993477   -0.284978
 C        -12.252815    3.157371   -0.207601
 N        -11.837752    4.247966   -0.212422
 H        -10.087590    2.507351   -0.103490
 H        -11.138200   -3.746138   -0.094182
 F        -13.592917   -4.729650   -0.162659
 F        -15.566597   -2.928582   -0.242422
 H        -14.901595   -0.442743   -0.244870
 C          9.291488    0.048364    0.043304
 C         10.033822   -1.124352    0.059245
 C          9.482194   -2.495826    0.071676
 O          8.301929   -2.832971    0.077329
 C         10.636812   -3.421955    0.076713
 C         10.610052   -4.809983    0.085542
 C         11.831948   -5.467468    0.087215
 C         13.030308   -4.742995    0.080201
 C         13.054949   -3.353093    0.071867
 C         11.829214   -2.677671    0.070179
 C         11.488603   -1.229679    0.062869
 C         12.430853   -0.207791    0.062628
 C         13.839347   -0.437384    0.065323
 N         14.997372   -0.572749    0.067451
 C         12.118742    1.184766    0.062530
 N         11.922216    2.334286    0.063786
 H          9.867536    0.966727    0.034061
 H          9.677311   -5.363678    0.090625
 F         11.893904   -6.805841    0.095290
 F         14.182193   -5.428447    0.081700
 H         14.017460   -2.860504    0.066694
 C          0.234098   -1.413839    1.281917
 C         -0.404710   -2.659868    1.288099
 C         -0.520358   -3.404223    2.462206
 C         -0.015045   -2.930903    3.678427
 C          0.615215   -1.680125    3.673284
 C          0.736437   -0.935500    2.501315
 H         -0.800288   -3.068182    0.365923
 H         -1.012582   -4.373495    2.426953
 H          1.026592   -1.283017    4.598620
 H          1.240743    0.025326    2.541727
 C          0.364834   -1.346499   -1.319456
 C          1.070172   -2.555844   -1.425041
 C          1.199010   -3.209653   -2.649163
 C          0.637773   -2.682531   -3.819363
 C         -0.052403   -1.469825   -3.713984
 C         -0.185542   -0.813122   -2.490863
 H          1.524990   -2.999750   -0.545471
 H          1.751422   -4.145633   -2.693338
 H         -0.497366   -1.027156   -4.601972
 H         -0.728273    0.125253   -2.458250
 C          5.103697    3.870263    1.193377
 C          4.522546    5.146412    1.155113
 C          4.467692    5.944575    2.296666
 C          4.992651    5.504315    3.519060
 C          5.565650    4.227595    3.555007
 C          5.619878    3.423382    2.415882
 H          4.118541    5.528908    0.222546
 H          4.011571    6.930076    2.233415
 H          5.979275    3.852289    4.488362
 H          6.069745    2.438086    2.488026
 C          5.310916    3.742424   -1.362917
 C          6.352144    4.682695   -1.429464
 C          6.646928    5.344817   -2.617991
 C          5.915923    5.097762   -3.789579
 C          4.885425    4.155167   -3.721686
 C          4.586902    3.486219   -2.531763
 H          6.935178    4.906271   -0.540722
 H          7.460378    6.066776   -2.635549
 H          4.302478    3.933908   -4.612924
 H          3.783270    2.757393   -2.527049
 C         -0.164908   -3.729215    4.951496
 H         -0.101771   -4.805719    4.759907
 H          0.606474   -3.467005    5.682827
 C          0.753006   -3.407732   -5.139208
 H          0.754215   -2.708103   -5.981702
 H          1.669761   -4.004479   -5.189942
 C          4.966774    6.386926    4.744606
 H          4.091003    7.044536    4.746355
 H          4.950410    5.793857    5.664933
 C          6.222917    5.839920   -5.068824
 H          5.784055    5.338459   -5.937127
 H          5.822526    6.861975   -5.041386
 H         -1.139589   -3.540903    5.421028
 H         -0.090690   -4.094739   -5.289292
 H          5.855499    7.030521    4.788237
 H          7.303009    5.922883   -5.233680
 C         -5.790935    1.227405    0.041472
 C         -6.224075    2.587724    0.024663
 C         -7.592711    2.745222   -0.018756
 H         -8.117004    3.693500   -0.037399
 C         -8.292348    1.506485   -0.040591
 S         -4.874236    3.728340    0.054520
 S         -7.159362    0.131494   -0.000202
 H          8.170992    2.509298   -0.000876
 C         -3.380699   -0.042055    0.118871
 C         -3.509393   -0.954425   -1.119749
 C         -3.234869   -2.326599   -1.072917
 C         -3.877198   -0.404277   -2.356054
 C         -3.343093   -3.119397   -2.214907
 H         -2.947765   -2.788256   -0.135842
 C         -3.981974   -1.199864   -3.495728
 H         -4.090152    0.657842   -2.436614
 C         -3.724278   -2.575417   -3.447327
 H         -3.127243   -4.182877   -2.142366
 H         -4.276125   -0.741696   -4.437211
 C         -3.614626   -0.744249    1.478017
 C         -4.627509   -1.707089    1.618819
 C         -2.939330   -0.336068    2.633276
 C         -4.933974   -2.249402    2.864604
 H         -5.180281   -2.049103    0.750212
 C         -3.251387   -0.881657    3.879049
 H         -2.153397    0.408469    2.570796
 C         -4.254421   -1.845845    4.022299
 H         -5.720431   -2.997254    2.935759
 H         -2.698878   -0.548326    4.754119
 C         -3.877539   -3.446307   -4.671453
 H         -3.778976   -2.863243   -5.592760
 H         -3.128066   -4.245009   -4.690292
 H         -4.864197   -3.927727   -4.693655
 C         -4.611980   -2.418357    5.373544
 H         -4.747367   -3.504768    5.325548
 H         -3.837344   -2.204323    6.116777
 H         -5.553239   -1.994147    5.746967
       157
S1: Total Energy = -5860.42718227
 C         -4.417448    1.093562    0.072297
 C         -3.786337    2.351440    0.080745
 C         -2.396386    2.165430    0.071867
 C         -2.070523    0.780159    0.074672
 C         -0.683344    0.589623    0.030621
 C          0.008634    1.824419    0.015634
 C          1.415321    1.666754   -0.004103
 C          1.674782    0.263693    0.016541
 C          2.972596   -0.206847    0.021932
 S         -1.021139    3.229716    0.037752
 C          0.358222   -0.553753    0.009077
 H          3.190688   -1.269366    0.042606
 C          7.916519    0.348698    0.030584
 C          7.468845    1.689757    0.013798
 C          6.084098    1.810126    0.007946
 C          5.436555    0.572624    0.013559
 C          4.017067    0.738005   -0.001319
 C          3.755645    2.148313   -0.037637
 C          2.462634    2.617600   -0.029934
 S          6.528653   -0.772697    0.031085
 C          5.073310    2.957501   -0.045406
 H          2.245205    3.681264   -0.038179
 C         -9.720851    1.493928   -0.071831
 C        -10.676239    0.492029   -0.105989
 C        -10.403979   -0.964652   -0.083604
 O         -9.311971   -1.522688   -0.042029
 C        -11.715113   -1.645660   -0.119571
 C        -11.960785   -3.011725   -0.112085
 C        -13.287489   -3.417814   -0.151062
 C        -14.319562   -2.471935   -0.196222
 C        -14.072312   -1.103904   -0.204235
 C        -12.738113   -0.679717   -0.164758
 C        -12.124983    0.670356   -0.161433
 C        -12.846290    1.861331   -0.209269
 C        -14.270447    1.913830   -0.258921
 N        -15.432442    2.007586   -0.300048
 C        -12.264277    3.162791   -0.218281
 N        -11.840073    4.249799   -0.228968
 H        -10.102639    2.508296   -0.084587
 H        -11.155072   -3.737168   -0.077381
 F        -13.610495   -4.718295   -0.146448
 F        -15.582433   -2.918909   -0.232297
 H        -14.919124   -0.432544   -0.239763
 C          9.302743    0.056581    0.041270
 C         10.047129   -1.114687    0.054693
 C          9.495908   -2.488613    0.062030
 O          8.315487   -2.826328    0.065138
 C         10.650343   -3.413806    0.065567
 C         10.625930   -4.801020    0.069687
 C         11.849399   -5.457937    0.071087
 C         13.045111   -4.730731    0.068552
 C         13.068381   -3.340111    0.064910
 C         11.841803   -2.664357    0.063390
 C         11.500196   -1.220719    0.060219
 C         12.444262   -0.191337    0.064820
 C         13.851110   -0.418218    0.068368
 N         15.010308   -0.553463    0.071381
 C         12.131049    1.198702    0.069642
 N         11.934293    2.349403    0.075023
 H          9.877083    0.975974    0.035000
 H          9.693833   -5.355972    0.071432
 F         11.912537   -6.797955    0.074684
 F         14.199482   -5.414022    0.069700
 H         14.030099   -2.845900    0.063009
 C          0.238466   -1.417403    1.284653
 C         -0.407111   -2.660516    1.292095
 C         -0.522617   -3.404530    2.465732
 C         -0.005483   -2.936579    3.679842
 C          0.623898   -1.685790    3.674954
 C          0.744383   -0.940579    2.502937
 H         -0.812871   -3.063351    0.371897
 H         -1.026027   -4.368152    2.433197
 H          1.033211   -1.287806    4.600673
 H          1.245419    0.021918    2.544085
 C          0.368334   -1.348043   -1.317046
 C          1.066883   -2.561281   -1.421721
 C          1.195659   -3.213941   -2.646521
 C          0.641215   -2.681856   -3.817679
 C         -0.042133   -1.464966   -3.712961
 C         -0.174793   -0.809174   -2.489648
 H          1.516710   -3.008819   -0.541488
 H          1.743118   -4.152755   -2.690463
 H         -0.481031   -1.018188   -4.601877
 H         -0.710872    0.133151   -2.457723
 C          5.101727    3.862782    1.203948
 C          4.519407    5.138647    1.172776
 C          4.466003    5.931406    2.318149
 C          4.993853    5.485819    3.537468
 C          5.568187    4.209540    3.566286
 C          5.620853    3.410633    2.423319
 H          4.114009    5.525411    0.242513
 H          4.009347    6.917038    2.260429
 H          5.984501    3.830502    4.496931
 H          6.072330    2.425673    2.489169
 C          5.307508    3.745413   -1.352962
 C          6.345301    4.689793   -1.415565
 C          6.639074    5.356502   -2.601781
 C          5.910524    5.110215   -3.775006
 C          4.883588    4.163345   -3.711267
 C          4.586219    3.489813   -2.523738
 H          6.926967    4.912200   -0.525694
 H          7.450260    6.081061   -2.616285
 H          4.303098    3.942062   -4.604134
 H          3.786097    2.757055   -2.522446
 C         -0.104657   -3.762577    4.940166
 H          0.658385   -4.551897    4.958400
 H          0.040049   -3.147728    5.834207
 C          0.756854   -3.405114   -5.138429
 H          0.784853   -2.702866   -5.978319
 H          1.660282   -4.022376   -5.179452
 C          4.970064    6.362852    4.767068
 H          4.093767    7.019782    4.773945
 H          4.956501    5.765600    5.684740
 C          6.216715    5.856904   -5.051798
 H          5.780438    5.356501   -5.922032
 H          5.813343    6.877757   -5.022092
 H         -1.079822   -4.255807    5.018603
 H         -0.100552   -4.071817   -5.301810
 H          5.858373    7.006955    4.811521
 H          7.296747    5.943438   -5.215137
 C         -5.808933    1.222883    0.051598
 C         -6.234007    2.576332    0.042955
 C         -7.612072    2.734868    0.003304
 H         -8.133979    3.684765   -0.009585
 C         -8.303012    1.504285   -0.023213
 S         -4.882908    3.710697    0.072421
 S         -7.170178    0.129798    0.008916
 H          8.171119    2.515852    0.004011
 C         -3.385706   -0.046021    0.110796
 C         -3.508978   -0.944152   -1.139103
 C         -3.229923   -2.315781   -1.107534
 C         -3.876691   -0.380498   -2.369582
 C         -3.334326   -3.095602   -2.258812
 H         -2.942619   -2.787467   -0.175551
 C         -3.977253   -1.163123   -3.518366
 H         -4.092628    0.681881   -2.437775
 C         -3.715661   -2.538579   -3.485322
 H         -3.115028   -4.159066   -2.198340
 H         -4.271123   -0.695024   -4.455012
 C         -3.619774   -0.763191    1.461697
 C         -4.627325   -1.731334    1.589878
 C         -2.946160   -0.365095    2.623421
 C         -4.931540   -2.290637    2.830281
 H         -5.177276   -2.066892    0.716939
 C         -3.255435   -0.926643    3.860885
 H         -2.162552    0.382619    2.569907
 C         -4.255255   -1.898210    3.991958
 H         -5.713283   -3.043966    2.892035
 H         -2.702895   -0.603295    4.739735
 C         -3.865691   -3.395371   -4.719627
 H         -3.742268   -2.805945   -5.633905
 H         -3.131083   -4.207689   -4.734193
 H         -4.860838   -3.857679   -4.761548
 C         -4.607477   -2.481351    5.339867
 H         -5.071066   -3.468122    5.240828
 H         -3.722034   -2.581856    5.976802
 H         -5.319449   -1.838797    5.874812
