        83
S0: Total Energy = -3048.65840991
 C         -0.726714   -3.168963   -0.073183
 C         -1.173319   -1.830826   -0.115345
 C         -2.520938   -1.545136   -0.254977
 C          0.000016   -0.858198    0.000116
 H         -2.859573   -0.513967   -0.311503
 C         -7.193268   -1.307027   -0.505151
 C         -7.137868   -2.612309   -1.013728
 C         -5.862439   -3.181968   -1.010390
 C         -4.888451   -2.328375   -0.498628
 C         -3.459073   -2.597540   -0.352920
 C         -2.994861   -3.931431   -0.305364
 C         -1.642286   -4.222057   -0.168453
 S         -5.578784   -0.802851   -0.005339
 H         -1.312176   -5.256344   -0.128885
 C          0.726757   -3.168963    0.073298
 C          1.173355   -1.830826    0.115525
 C          2.520974   -1.545135    0.255163
 H          2.859601   -0.513966    0.311731
 C          7.193314   -1.307036    0.505245
 C          7.137930   -2.612342    1.013761
 C          5.862500   -3.181999    1.010431
 C          4.888494   -2.328375    0.498751
 C          3.459116   -2.597539    0.353052
 C          2.994909   -3.931430    0.305428
 C          1.642335   -4.222057    0.168511
 S          5.578812   -0.802820    0.005535
 H          1.312231   -5.256343    0.128892
 H         -8.024432   -3.116105   -1.384980
 H          8.024508   -3.116165    1.384939
 C         -8.429220   -0.608720   -0.447875
 C         -8.803146    0.646897   -0.018691
 H         -9.226503   -1.234080   -0.834305
 C         -7.895667    1.676924    0.539594
 C        -10.157337    1.210979   -0.036142
 O         -6.685677    1.585566    0.721488
 C         -8.727545    2.860909    0.844356
 C        -10.066788    2.592641    0.504718
 C        -11.331023    0.610375   -0.461163
 C         -8.320099    4.075275    1.379687
 C        -11.030860    3.586334    0.711754
 C        -12.605203    1.256297   -0.434499
 C        -11.422052   -0.720009   -0.973778
 C         -9.287838    5.061313    1.583334
 H         -7.275655    4.237954    1.627407
 C        -10.625022    4.811736    1.250360
 H        -12.073914    3.437073    0.469144
 N        -13.669099    1.731677   -0.436612
 N        -11.551802   -1.797876   -1.398186
 H         -9.006561    6.023798    2.000170
 H        -11.369638    5.585451    1.412435
 C          8.429267   -0.608739    0.447902
 C          8.803147    0.646880    0.018692
 H          9.226574   -1.234104    0.834271
 C          7.895575    1.676901   -0.539452
 C         10.157339    1.210981    0.035951
 O          6.685573    1.585499   -0.721245
 C          8.727371    2.860950   -0.844191
 C         10.066668    2.592689   -0.504760
 C         11.331134    0.610400    0.460705
 C          8.319815    4.075363   -1.379330
 C         11.030680    3.586436   -0.711806
 C         12.605279    1.256383    0.433773
 C         11.422345   -0.719993    0.973267
 C          9.287497    5.061453   -1.582997
 H          7.275332    4.238038   -1.626889
 C         10.624733    4.811883   -1.250224
 H         12.073771    3.437181   -0.469339
 N         13.669140    1.731840    0.435635
 N         11.552305   -1.797852    1.397631
 H          9.006135    6.023975   -1.999693
 H         11.369303    5.585641   -1.412310
 C         -0.124936    0.028651    1.260144
 H         -0.213570   -0.579635    2.165935
 H          0.753983    0.674566    1.364151
 H         -1.008928    0.672137    1.190643
 C          0.124962    0.028722   -1.259861
 H          0.213601   -0.579513   -2.165687
 H         -0.753961    0.674637   -1.363835
 H          1.008949    0.672210   -1.190325
 H          5.647213   -4.171574    1.395652
 H          3.709200   -4.746955    0.352119
 H         -5.647136   -4.171518   -1.395667
 H         -3.709151   -4.746956   -0.352097
        83
T1: Total Energy = -3048.60512753
 C         -0.716515   -3.293807   -0.004985
 C         -1.178483   -1.946135   -0.006219
 C         -2.523583   -1.666778   -0.012159
 C         -0.000039   -0.972654    0.000035
 H         -2.866367   -0.636005   -0.012379
 C         -7.185962   -1.391083   -0.018832
 C         -7.195093   -2.811208   -0.032098
 C         -5.944331   -3.396676   -0.033371
 C         -4.887473   -2.463669   -0.021739
 C         -3.479728   -2.727398   -0.018457
 C         -2.993896   -4.072546   -0.020594
 C         -1.645503   -4.356656   -0.013862
 S         -5.520903   -0.814706   -0.008617
 H         -1.308457   -5.389061   -0.016002
 C          0.716447   -3.293804    0.005059
 C          1.178409   -1.946131    0.006285
 C          2.523508   -1.666768    0.012209
 H          2.866288   -0.635993    0.012424
 C          7.185888   -1.391050    0.018826
 C          7.195021   -2.811177    0.032072
 C          5.944263   -3.396651    0.033357
 C          4.887400   -2.463649    0.021756
 C          3.479658   -2.727384    0.018498
 C          2.993831   -4.072535    0.020650
 C          1.645440   -4.356650    0.013935
 S          5.520823   -0.814682    0.008647
 H          1.308397   -5.389056    0.016092
 H         -8.126604   -3.367044   -0.040276
 H          8.126533   -3.367009    0.040228
 C         -8.398381   -0.669469   -0.015036
 C         -8.713817    0.686207   -0.001841
 H         -9.242267   -1.349119   -0.024139
 C         -7.736226    1.803759    0.013610
 C        -10.046731    1.269158    0.000531
 O         -6.511866    1.720410    0.016070
 C         -8.517087    3.058638    0.025885
 C         -9.890234    2.748814    0.018372
 C        -11.274145    0.607907   -0.011630
 C         -8.041959    4.361847    0.042465
 C        -10.818350    3.794866    0.028177
 C        -12.531483    1.281540   -0.008053
 C        -11.435501   -0.809118   -0.029293
 C         -8.975492    5.402383    0.052131
 H         -6.972918    4.551687    0.047632
 C        -10.344303    5.112779    0.045012
 H        -11.885240    3.619054    0.023198
 N        -13.586968    1.777608   -0.005792
 N        -11.627963   -1.959683   -0.043810
 H         -8.641404    6.435509    0.065172
 H        -11.062990    5.927105    0.052678
 C          8.398317   -0.669450    0.015008
 C          8.713808    0.686217    0.001820
 H          9.242184   -1.349122    0.024082
 C          7.736279    1.803827   -0.013560
 C         10.046751    1.269099   -0.000595
 O          6.511914    1.720556   -0.015954
 C          8.517208    3.058664   -0.025833
 C          9.890336    2.748762   -0.018395
 C         11.274136    0.607793    0.011500
 C          8.042154    4.361901   -0.042354
 C         10.818514    3.794760   -0.028218
 C         12.531499    1.281379    0.007877
 C         11.435436   -0.809238    0.029141
 C          8.975747    5.402384   -0.052039
 H          6.973124    4.551802   -0.047465
 C         10.344542    5.112701   -0.044997
 H         11.885393    3.618883   -0.023297
 N         13.586990    1.777434    0.005575
 N         11.627860   -1.959810    0.043640
 H          8.641718    6.435529   -0.065037
 H         11.063275    5.926986   -0.052678
 C         -0.006639   -0.087068    1.267040
 H         -0.010976   -0.695443    2.176997
 H          0.878672    0.557635    1.288595
 H         -0.892645    0.556940    1.279713
 C          0.006557   -0.087054   -1.266958
 H          0.010895   -0.695418   -2.176922
 H         -0.878755    0.557647   -1.288506
 H          0.892561    0.556958   -1.279626
 H          5.794918   -4.469416    0.042926
 H          3.701426   -4.893722    0.026752
 H         -5.794980   -4.469440   -0.042946
 H         -3.701488   -4.893736   -0.026693
        83
S1: Total Energy = -3048.58777252
 C         -0.715014   -3.295581   -0.008900
 C         -1.177316   -1.946905   -0.011292
 C         -2.523137   -1.668531   -0.022257
 C          0.000065   -0.973355    0.000077
 H         -2.866813   -0.638281   -0.023074
 C         -7.183801   -1.395680   -0.035932
 C         -7.196796   -2.806572   -0.062723
 C         -5.940242   -3.396042   -0.064529
 C         -4.889462   -2.465145   -0.040289
 C         -3.476306   -2.729151   -0.033532
 C         -2.991715   -4.074343   -0.036741
 C         -1.643944   -4.359553   -0.024412
 S         -5.520054   -0.820295   -0.013748
 H         -1.306556   -5.391639   -0.027497
 C          0.715112   -3.295591    0.008971
 C          1.177432   -1.946922    0.011407
 C          2.523258   -1.668566    0.022369
 H          2.866948   -0.638321    0.023213
 C          7.183921   -1.395780    0.035925
 C          7.196905   -2.806672    0.062689
 C          5.940342   -3.396124    0.064526
 C          4.889572   -2.465213    0.040331
 C          3.476412   -2.729200    0.033596
 C          2.991803   -4.074384    0.036765
 C          1.644029   -4.359576    0.024442
 S          5.520185   -0.820370    0.013845
 H          1.306626   -5.391658    0.027490
 H         -8.127670   -3.363235   -0.080118
 H          8.127774   -3.363345    0.080032
 C         -8.401304   -0.665122   -0.029639
 C         -8.711670    0.684309   -0.003417
 H         -9.245388   -1.344653   -0.049249
 C         -7.730898    1.798811    0.030002
 C        -10.047470    1.273978   -0.000060
 O         -6.506364    1.711600    0.036247
 C         -8.508242    3.054702    0.055449
 C         -9.883801    2.747928    0.038171
 C        -11.276491    0.614541   -0.027905
 C         -8.029435    4.355978    0.091138
 C        -10.808415    3.798947    0.058104
 C        -12.532332    1.289768   -0.020132
 C        -11.438416   -0.801213   -0.067703
 C         -8.959573    5.399779    0.110898
 H         -6.959768    4.542178    0.103088
 C        -10.329760    5.114179    0.094398
 H        -11.875810    3.626343    0.046360
 N        -13.586759    1.789160   -0.015020
 N        -11.628476   -1.952381   -0.100521
 H         -8.622393    6.431611    0.138999
 H        -11.045619    5.930991    0.110019
 C          8.401411   -0.665209    0.029587
 C          8.711688    0.684240    0.003377
 H          9.245518   -1.344709    0.049142
 C          7.730796    1.798636   -0.029974
 C         10.047431    1.274046   -0.000034
 O          6.506272    1.711284   -0.036153
 C          8.508006    3.054610   -0.055408
 C          9.883599    2.747979   -0.038206
 C         11.276543    0.614771    0.027728
 C          8.029062    4.355838   -0.091028
 C         10.808103    3.799094   -0.058147
 C         12.532283    1.290185    0.019914
 C         11.438689   -0.800959    0.067470
 C          8.959091    5.399735   -0.110796
 H          6.959376    4.541927   -0.102922
 C         10.329309    5.114278   -0.094372
 H         11.875516    3.626598   -0.046461
 N         13.586630    1.789747    0.014759
 N         11.628982   -1.952090    0.100261
 H          8.621802    6.431533   -0.138846
 H         11.045082    5.931165   -0.109999
 C         -0.012008   -0.088005    1.267477
 H         -0.019867   -0.696120    2.177512
 H          0.872829    0.556997    1.292061
 H         -0.898202    0.555599    1.275879
 C          0.012150   -0.087955   -1.267287
 H          0.020002   -0.696033   -2.177346
 H         -0.872679    0.557059   -1.291845
 H          0.898353    0.555639   -1.275662
 H          5.792883   -4.469034    0.084136
 H          3.700261   -4.894555    0.047223
 H         -5.792797   -4.468954   -0.084165
 H         -3.700184   -4.894503   -0.047240
