        96
S0: Total Energy = -3517.48701241
 C         -1.568602    0.881968    0.007982
 C         -2.184837   -0.406433    0.003818
 C         -3.561218   -0.535566    0.002523
 H         -4.041213   -1.510808   -0.000414
 C         -8.206927    1.285958    0.000140
 C         -7.424849    2.462394    0.002921
 C         -6.057430    2.219498    0.005179
 C         -5.757908    0.853525    0.003402
 C         -4.331516    0.642288    0.004727
 C         -3.720821    1.928367    0.008126
 C         -2.339053    2.055996    0.010139
 S         -7.155371   -0.155786    0.000538
 C         -4.779175    3.021349    0.008606
 H         -7.887587    3.444041    0.002698
 C         -9.617563    1.366345   -0.004491
 C        -10.642295    0.434649   -0.005880
 H         -9.929640    2.404847   -0.006454
 C        -10.473528   -1.031584    0.004981
 C        -12.077750    0.719185   -0.012353
 O         -9.425194   -1.670261    0.009345
 C        -11.834859   -1.619365    0.011185
 C        -12.788637   -0.585302    0.002056
 C        -12.710932    1.953920   -0.031903
 C        -12.173922   -2.963113    0.024711
 C        -14.149247   -0.920414    0.007556
 C        -14.129967    2.112571   -0.037596
 C        -12.036808    3.212427   -0.051080
 C        -13.533376   -3.259758    0.029585
 H        -11.421314   -3.744088    0.031385
 C        -14.514504   -2.268070    0.021510
 H        -14.928763   -0.171280    0.001782
 N        -15.280375    2.300269   -0.043007
 N        -11.538535    4.266455   -0.067389
 F        -13.920406   -4.547502    0.042833
 H         -4.695714    3.670331    0.890105
 H         -4.692946    3.673594   -0.870209
 H         -1.868943    3.035398    0.013039
 C          3.561198    0.535489    0.008870
 H          4.041193    1.510729    0.012043
 C          8.206910   -1.285967   -0.002074
 C          7.424840   -2.462406   -0.005478
 C          6.057417   -2.219538   -0.002721
 C          5.757889   -0.853576    0.002687
 C          4.331497   -0.642357    0.004500
 C          3.720807   -1.928433    0.000119
 C          2.339035   -2.056072    0.000011
 S          7.155344    0.155752    0.005138
 C          4.779164   -3.021397   -0.004474
 H          7.887594   -3.444034   -0.010216
 C          9.617546   -1.366331   -0.005993
 C         10.642283   -0.434635   -0.004069
 H          9.929614   -2.404821   -0.011572
 C         10.473497    1.031591    0.007217
 C         12.077751   -0.719144   -0.010624
 O          9.425162    1.670249    0.013678
 C         11.834814    1.619433    0.010156
 C         12.788612    0.585399    0.000182
 C         12.711023   -1.953893   -0.025992
 C         12.173844    2.963211    0.021266
 C         14.149218    0.920577    0.001979
 C         14.130068   -2.112431   -0.032477
 C         12.037048   -3.212572   -0.038426
 C         13.533292    3.259924    0.022481
 H         11.421211    3.744154    0.028719
 C         14.514440    2.268270    0.013227
 H         14.928760    0.171483   -0.004887
 N         15.280481   -2.300081   -0.038385
 N         11.538943   -4.266752   -0.048971
 F         13.920293    4.547699    0.033092
 H          4.695025   -3.674976    0.873563
 H          4.693606   -3.669036   -0.886747
 H          1.868927   -3.035473   -0.003479
 C         -0.136533    0.668116    0.008530
 C          1.121522    1.513184    0.012303
 C          0.136510   -0.668201    0.004486
 C          2.184815    0.406353    0.008595
 C          1.568582   -0.882050    0.004157
 C         -1.121547   -1.513266    0.000687
 C         -1.225648   -2.397174    1.265357
 H         -2.177492   -2.939337    1.277459
 H         -0.417051   -3.136158    1.286960
 H         -1.162613   -1.793012    2.175921
 C         -1.223663   -2.387064   -1.271233
 H         -2.175216   -2.929543   -1.288939
 H         -1.159742   -1.775520   -2.176790
 H         -0.414614   -3.125367   -1.297733
 C          1.223842    2.386806    1.284301
 H          0.414791    3.125103    1.311013
 H          1.160073    1.775155    2.189799
 H          2.175400    2.929284    1.301908
 C          1.225411    2.397275   -1.252283
 H          1.162287    1.793227   -2.162915
 H          0.416778    3.136221   -1.273688
 H          2.177224    2.939489   -1.264442
 H         15.559014    2.560574    0.014982
 H        -15.559081   -2.560323    0.026339
        96
T1: Total Energy = -3517.44137934
 C         -1.543692    0.889374    0.009557
 C         -2.174595   -0.408514   -0.015573
 C         -3.542262   -0.533546   -0.020177
 H         -4.027068   -1.505727   -0.037247
 C         -8.178143    1.294614    0.005540
 C         -7.389831    2.478270    0.022024
 C         -6.030099    2.234595    0.019927
 C         -5.721435    0.860288    0.000029
 C         -4.317702    0.653181   -0.001726
 C         -3.692206    1.951452    0.020007
 C         -2.324683    2.076738    0.026635
 S         -7.132505   -0.151897   -0.013420
 C         -4.754932    3.040675    0.033722
 H         -7.854192    3.458550    0.034694
 C         -9.586037    1.375519    0.004253
 C        -10.614082    0.436029   -0.003925
 H         -9.901512    2.412301    0.013729
 C        -10.443108   -1.032163   -0.004291
 C        -12.042823    0.714899   -0.004818
 O         -9.393099   -1.668567   -0.008859
 C        -11.802379   -1.624055    0.003512
 C        -12.756023   -0.589669    0.004347
 C        -12.679973    1.954892   -0.016232
 C        -12.139527   -2.967636    0.010353
 C        -14.115218   -0.926155    0.013104
 C        -14.097635    2.110496   -0.015678
 C        -12.011298    3.214442   -0.033170
 C        -13.499537   -3.266480    0.019039
 H        -11.386106   -3.747923    0.009417
 C        -14.479819   -2.275939    0.020682
 H        -14.895461   -0.177717    0.014806
 N        -15.249277    2.295694   -0.015621
 N        -11.520278    4.272806   -0.047601
 F        -13.884343   -4.556406    0.026464
 H         -4.674505    3.678598    0.923163
 H         -4.671088    3.703307   -0.837182
 H         -1.849428    3.053146    0.044754
 C          3.542222    0.533637    0.021744
 H          4.027026    1.505820    0.038730
 C          8.178107   -1.294501   -0.005183
 C          7.389793   -2.478158   -0.021475
 C          6.030060   -2.234491   -0.018963
 C          5.721396   -0.860187    0.001058
 C          4.317663   -0.653087    0.003144
 C          3.692168   -1.951359   -0.018489
 C          2.324644   -2.076650   -0.024907
 S          7.132465    0.152005    0.014109
 C          4.754895   -3.040578   -0.032434
 H          7.854154   -3.458435   -0.034312
 C          9.586004   -1.375423   -0.004363
 C         10.614096   -0.435979    0.003439
 H          9.901451   -2.412214   -0.013984
 C         10.443238    1.032228    0.003841
 C         12.042812   -0.714957    0.003652
 O          9.393287    1.668721    0.008991
 C         11.802551    1.624012   -0.004796
 C         12.756114    0.589552   -0.006097
 C         12.679830   -1.955015    0.015007
 C         12.139800    2.967566   -0.011938
 C         14.115331    0.925933   -0.015675
 C         14.097472   -2.110803    0.013563
 C         12.010996   -3.214469    0.032799
 C         13.499827    3.266306   -0.021450
 H         11.386440    3.747912   -0.010619
 C         14.480032    2.275688   -0.023586
 H         14.895516    0.177437   -0.017770
 N         15.249087   -2.296170    0.012773
 N         11.519781   -4.272733    0.047933
 F         13.884728    4.556200   -0.029208
 H          4.671265   -3.703172    0.838521
 H          4.674254   -3.678540   -0.921826
 H          1.849389   -3.053059   -0.042971
 C         -0.144993    0.684024    0.012376
 C          1.117058    1.521919    0.036527
 C          0.144952   -0.683940   -0.010468
 C          2.174554    0.408600    0.017341
 C          1.543652   -0.889288   -0.007730
 C         -1.117098   -1.521835   -0.034638
 C         -1.232142   -2.429888    1.211939
 H         -2.192079   -2.957279    1.210689
 H         -0.434733   -3.180720    1.217050
 H         -1.161851   -1.846729    2.135390
 C         -1.217255   -2.368264   -1.325495
 H         -2.174899   -2.898508   -1.359320
 H         -1.140631   -1.739961   -2.218338
 H         -0.416206   -3.114362   -1.359647
 C          1.217280    2.368252    1.327447
 H          0.416233    3.114348    1.361692
 H          1.140697    1.739879    2.220243
 H          2.174929    2.898488    1.361265
 C          1.232038    2.430063   -1.209986
 H          1.161701    1.846974   -2.133477
 H          0.434632    3.180898   -1.215003
 H          2.191974    2.957455   -1.208745
 H         15.524723    2.567792   -0.031571
 H        -15.524492   -2.568123    0.028025
        96
S1: Total Energy = -3517.42601570
 C         -1.549439    0.886594    0.015417
 C         -2.175205   -0.408450   -0.006418
 C         -3.546869   -0.534372   -0.013421
 H         -4.030666   -1.507002   -0.028067
 C         -8.184643    1.293592   -0.005143
 C         -7.401566    2.472229    0.007200
 C         -6.034979    2.226704    0.009503
 C         -5.731608    0.858426   -0.003425
 C         -4.318141    0.649206   -0.001160
 C         -3.697568    1.945143    0.016651
 C         -2.326946    2.071475    0.026182
 S         -7.139854   -0.152217   -0.014598
 C         -4.760512    3.033706    0.022945
 H         -7.863964    3.453492    0.013740
 C         -9.599401    1.373866   -0.010979
 C        -10.623510    0.437971   -0.014576
 H         -9.913267    2.411380   -0.009646
 C        -10.451104   -1.031723    0.000657
 C        -12.056354    0.714643   -0.021528
 O         -9.399772   -1.665690    0.002395
 C        -11.809146   -1.623590    0.015897
 C        -12.763845   -0.588037    0.004110
 C        -12.693175    1.956489   -0.052322
 C        -12.145343   -2.967065    0.039371
 C        -14.123765   -0.927248    0.017558
 C        -14.110044    2.112705   -0.056198
 C        -12.023427    3.214064   -0.088271
 C        -13.505282   -3.267266    0.052333
 H        -11.391199   -3.746648    0.047772
 C        -14.486319   -2.277034    0.042054
 H        -14.904591   -0.179409    0.010402
 N        -15.262287    2.297167   -0.060497
 N        -11.529209    4.271220   -0.118763
 F        -13.889193   -4.557521    0.076027
 H         -4.681447    3.675672    0.909716
 H         -4.673502    3.692638   -0.850579
 H         -1.852476    3.048240    0.041682
 C          3.546808    0.534135    0.036254
 H          4.030597    1.506762    0.051344
 C          8.184614   -1.293581    0.004103
 C          7.401525   -2.472198   -0.009247
 C          6.034934   -2.226747   -0.002738
 C          5.731579   -0.858555    0.016863
 C          4.318087   -0.649385    0.020010
 C          3.697512   -1.945291    0.000392
 C          2.326874   -2.071661   -0.005768
 S          7.139841    0.152088    0.027321
 C          4.760459   -3.033777   -0.013173
 H          7.863910   -3.453378   -0.024354
 C          9.599359   -1.373784   -0.004565
 C         10.623545   -0.437974   -0.000689
 H          9.913141   -2.411211   -0.019030
 C         10.451144    1.031660    0.018628
 C         12.056338   -0.714558   -0.017023
 O          9.399834    1.665419    0.036663
 C         11.809125    1.623808    0.012468
 C         12.763796    0.588374   -0.008549
 C         12.693299   -1.956559   -0.038001
 C         12.145282    2.967443    0.024441
 C         14.123676    0.927920   -0.017436
 C         14.110110   -2.112377   -0.055323
 C         12.023934   -3.214835   -0.044945
 C         13.505172    3.267977    0.014649
 H         11.391134    3.746902    0.040419
 C         14.486192    2.277891   -0.005843
 H         14.904523    0.180243   -0.033190
 N         15.262299   -2.296638   -0.070164
 N         11.530065   -4.272581   -0.051183
 F         13.889048    4.558419    0.025218
 H          4.677190   -3.695029    0.858977
 H          4.677650   -3.673391   -0.901287
 H          1.852418   -3.048419   -0.022321
 C         -0.143027    0.680050    0.021786
 C          1.116881    1.519636    0.045524
 C          0.142938   -0.680293    0.003726
 C          2.175127    0.408195    0.030996
 C          1.549362   -0.886828    0.008600
 C         -1.116957   -1.519898   -0.019673
 C         -1.231724   -2.423740    1.230238
 H         -2.190440   -2.953139    1.228657
 H         -0.432812   -3.172818    1.238910
 H         -1.164420   -1.837262    2.151750
 C         -1.212440   -2.370968   -1.308079
 H         -2.168562   -2.903761   -1.340964
 H         -1.136164   -1.745667   -2.202993
 H         -0.409531   -3.115127   -1.337929
 C          1.212455    2.369672    1.334607
 H          0.409505    3.113770    1.365070
 H          1.136242    1.743650    2.229024
 H          2.168575    2.902450    1.367853
 C          1.231561    2.424494   -1.203656
 H          1.163987    1.838801   -2.125647
 H          0.432807    3.173747   -1.211573
 H          2.190366    2.953727   -1.201821
 H         15.530579    2.571419   -0.012544
 H        -15.530736   -2.570302    0.053580
