       120
S0: Total Energy = -4653.67290673
 C          6.085013    0.310844   -0.066782
 C          5.271815    1.465778   -0.071777
 C          3.911786    1.189181   -0.064916
 C          3.655699   -0.188533   -0.044337
 S          5.077014   -1.161247   -0.041127
 C          2.606121    1.999349   -0.028565
 C         -6.085012   -0.310851    0.066908
 C         -5.271815   -1.465785    0.071942
 C         -3.911785   -1.189189    0.065043
 C         -3.655698    0.188524    0.044383
 S         -5.077013    1.161238    0.041156
 C         -2.606123   -1.999360    0.028682
 C          7.494581    0.428864   -0.080026
 C          8.539438   -0.477653   -0.075459
 C          8.402029   -1.949454   -0.048362
 O          7.361067   -2.601439   -0.035774
 C          9.770947   -2.509571   -0.037869
 C         10.148502   -3.844791   -0.010013
 C         11.513640   -4.141732   -0.003266
 C         12.456504   -3.107159   -0.024308
 C         12.070477   -1.762376   -0.052887
 C         10.704955   -1.457063   -0.059975
 C          9.968742   -0.164370   -0.088798
 C         10.575917    1.081979   -0.125964
 C         11.991373    1.272679   -0.134625
 N         13.136515    1.489394   -0.143197
 C          9.873158    2.324683   -0.163574
 N          9.348335    3.365245   -0.196411
 H          7.779000    1.475174   -0.094254
 H          9.392799   -4.624172    0.006096
 H         12.832673   -0.995569   -0.068143
 C         -7.494580   -0.428866    0.080144
 C         -8.539430    0.477657    0.075461
 C         -8.402006    1.949456    0.048248
 O         -7.361037    2.601431    0.035770
 C         -9.770919    2.509581    0.037523
 C        -10.148461    3.844800    0.009461
 C        -11.513596    4.141750    0.002514
 C        -12.456470    3.107186    0.023564
 C        -12.070456    1.762404    0.052349
 C        -10.704937    1.457083    0.059643
 C         -9.968739    0.164388    0.088714
 C        -10.575935   -1.081949    0.125935
 C        -11.991395   -1.272623    0.134445
 N        -13.136545   -1.489302    0.142901
 C         -9.873202   -2.324661    0.163737
 N         -9.348404   -3.365231    0.196736
 H         -7.779005   -1.475173    0.094428
 H         -9.392750    4.624174   -0.006648
 H        -12.832659    0.995604    0.067604
 C          2.599890    2.857217    1.253623
 C          3.329053    4.056738    1.289042
 C          3.405895    4.813006    2.454853
 C          2.757386    4.406283    3.630933
 C          2.036922    3.208953    3.592054
 C          1.958945    2.443838    2.425326
 H          3.835507    4.408197    0.394634
 H          3.980128    5.736801    2.451141
 H          1.525290    2.862014    4.486792
 H          1.396409    1.515827    2.441896
 C          2.358870    2.831284   -1.306551
 C          1.434843    3.886296   -1.297452
 C          1.147513    4.597088   -2.461972
 C          1.766218    4.281759   -3.678654
 C          2.687355    3.227383   -3.682875
 C          2.977182    2.511177   -2.521242
 H          0.949709    4.173999   -0.369551
 H          0.432811    5.415868   -2.420005
 H          3.192968    2.961545   -4.608397
 H          3.698834    1.701741   -2.567345
 C         -2.358827   -2.831235    1.306698
 C         -1.434799   -3.886247    1.297610
 C         -1.147424   -4.596987    2.462150
 C         -1.766083   -4.281603    3.678843
 C         -2.687222   -3.227231    3.683052
 C         -2.977094   -2.511075    2.521397
 H         -0.949703   -4.173992    0.369703
 H         -0.432722   -5.415767    2.420192
 H         -3.192800   -2.961353    4.608581
 H         -3.698747   -1.701640    2.567493
 C         -2.599941   -2.857289   -1.253464
 C         -3.329077   -4.056830   -1.288788
 C         -3.405965   -4.813152   -2.454561
 C         -2.757532   -4.406467   -3.630695
 C         -2.037094   -3.209118   -3.591911
 C         -1.959070   -2.443948   -2.425222
 H         -3.835473   -4.408259   -0.394337
 H         -3.980176   -5.736961   -2.450774
 H         -1.525521   -2.862208   -4.486694
 H         -1.396559   -1.515924   -2.441865
 C          2.823527    5.246507    4.884361
 H          2.502335    4.679106    5.763418
 H          3.840464    5.611282    5.067948
 C          1.435549    5.039520   -4.942794
 H          2.262285    5.002801   -5.659570
 H          0.553376    4.614222   -5.439668
 C         -1.435363   -5.039311    4.943001
 H         -0.553081   -4.614085    5.439743
 H         -2.262014   -5.002439    5.659867
 C         -2.823726   -5.246748   -4.884082
 H         -3.840674   -5.611523   -5.067615
 H         -2.502562   -4.679391   -5.763177
 H          2.174851    6.128801    4.805836
 H          1.212604    6.091045   -4.733013
 H         -1.212569   -6.090880    4.733273
 H         -2.175055   -6.129045   -4.805540
 C         -2.245274    0.395302    0.018776
 C         -1.598422   -0.840236   -0.001054
 C         -0.202122   -0.678401   -0.002514
 C          0.202120    0.678389    0.002494
 C          2.245273   -0.395314   -0.018767
 C          1.598420    0.840223    0.001084
 S          1.172126   -1.769737   -0.020941
 S         -1.172127    1.769725    0.020917
 H          5.708062    2.458790   -0.080140
 H         -5.708062   -2.458798    0.080294
 H        -13.515335    3.348427    0.017419
 H        -11.846970    5.175029   -0.019454
 H         11.847024   -5.175011    0.018539
 H         13.515371   -3.348393   -0.018320
       120
T1: Total Energy = -4653.63520210
 C         -6.063330   -0.300652   -0.062929
 C         -5.237075   -1.464791   -0.069836
 C         -3.891069   -1.187890   -0.056977
 C         -3.624608    0.208729   -0.033555
 S         -5.066483    1.181545   -0.033354
 C         -2.589379   -2.005857   -0.026611
 C          6.063330    0.300664    0.062885
 C          5.237074    1.464802    0.069799
 C          3.891068    1.187900    0.056913
 C          3.624609   -0.208718    0.033467
 S          5.066484   -1.181534    0.033248
 C          2.589379    2.005867    0.026543
 C         -7.464974   -0.427313   -0.077555
 C         -8.519544    0.482760   -0.072225
 C         -8.388408    1.957694   -0.044191
 O         -7.349465    2.612731   -0.030016
 C         -9.758603    2.513184   -0.036076
 C        -10.142168    3.846061   -0.008818
 C        -11.509557    4.136861   -0.004789
 C        -12.445589    3.097274   -0.027995
 C        -12.052292    1.753246   -0.055984
 C        -10.686224    1.454978   -0.060229
 C         -9.940160    0.166520   -0.087442
 C        -10.542914   -1.088109   -0.124151
 C        -11.956251   -1.283867   -0.133881
 N        -13.101161   -1.504910   -0.143237
 C         -9.838220   -2.328215   -0.159662
 N         -9.314860   -3.370238   -0.190876
 H         -7.748461   -1.473122   -0.094068
 H         -9.390303    4.629188    0.008919
 H        -12.810710    0.982724   -0.073081
 C          7.464973    0.427325    0.077573
 C          8.519545   -0.482746    0.072250
 C          8.388414   -1.957678    0.044114
 O          7.349472   -2.612717    0.029843
 C          9.758611   -2.513165    0.036046
 C         10.142179   -3.846040    0.008725
 C         11.509569   -4.136836    0.004756
 C         12.445598   -3.097250    0.028085
 C         12.052296   -1.753224    0.056136
 C         10.686227   -1.454959    0.060318
 C          9.940159   -0.166504    0.087566
 C         10.542907    1.088124    0.124388
 C         11.956243    1.283886    0.134212
 N         13.101151    1.504937    0.143650
 C          9.838208    2.328226    0.159940
 N          9.314844    3.370246    0.191193
 H          7.748458    1.473133    0.094147
 H          9.390318   -4.629167   -0.009107
 H         12.810712   -0.982702    0.073325
 C         -2.586129   -2.866756    1.253698
 C         -3.308986   -4.070237    1.282188
 C         -3.390239   -4.827620    2.446927
 C         -2.753191   -4.417980    3.628231
 C         -2.040240   -3.215791    3.596279
 C         -1.958582   -2.449173    2.431086
 H         -3.807150   -4.423744    0.384091
 H         -3.958927   -5.754721    2.438072
 H         -1.538638   -2.865979    4.495488
 H         -1.403004   -1.517034    2.453239
 C         -2.352579   -2.832497   -1.309320
 C         -1.435517   -3.893770   -1.309470
 C         -1.156406   -4.598034   -2.479671
 C         -1.777120   -4.270340   -3.692422
 C         -2.691457   -3.210252   -3.686874
 C         -2.972186   -2.499240   -2.519719
 H         -0.950489   -4.191817   -0.384807
 H         -0.447255   -5.421914   -2.445598
 H         -3.198242   -2.934988   -4.608897
 H         -3.688454   -1.684637   -2.559075
 C          2.352568    2.832483    1.309267
 C          1.435350    3.893624    1.309489
 C          1.156228    4.597847    2.479711
 C          1.777083    4.270242    3.692414
 C          2.691570    3.210285    3.686796
 C          2.972310    2.499312    2.519618
 H          0.950202    4.191597    0.384864
 H          0.446954    5.421623    2.445693
 H          3.198464    2.935092    4.608780
 H          3.688695    1.684809    2.558920
 C          2.586138    2.866780   -1.253757
 C          3.309075    4.070211   -1.282268
 C          3.390339    4.827591   -2.447009
 C          2.753225    4.417996   -3.628292
 C          2.040197    3.215852   -3.596319
 C          1.958528    2.449238   -2.431125
 H          3.807294    4.423683   -0.384188
 H          3.959090    5.754654   -2.438171
 H          1.538543    2.866075   -4.495513
 H          1.402890    1.517134   -2.453262
 C         -2.824117   -5.259435    4.880395
 H         -2.512794   -4.691031    5.762296
 H         -3.840313   -5.630150    5.055690
 C         -1.455113   -5.021661   -4.962469
 H         -2.282946   -4.973163   -5.677188
 H         -0.570500   -4.599744   -5.457828
 C          1.455065    5.021519    4.962485
 H          0.570460    4.599571    5.457833
 H          2.282901    4.973018    5.677199
 C          2.824168    5.259447   -4.880457
 H          3.840389    5.630069   -5.055801
 H          2.512750    4.691075   -5.762345
 H         -2.169814   -6.137865    4.805691
 H         -1.240064   -6.076300   -4.760446
 H          1.239993    6.076160    4.760493
 H          2.169949    6.137938   -4.805719
 C          2.248535   -0.411705    0.012082
 C          1.574922    0.852140   -0.002203
 C          0.210849    0.690641    0.000384
 C         -0.210848   -0.690632   -0.000469
 C         -2.248535    0.411715   -0.012170
 C         -1.574922   -0.852130    0.002120
 S         -1.172750    1.791672   -0.005857
 S          1.172751   -1.791661    0.005762
 H         -5.674560   -2.456795   -0.081937
 H          5.674558    2.456806    0.081931
 H         13.505972   -3.332217    0.024403
 H         11.848182   -5.168393   -0.016602
 H        -11.848166    5.168420    0.016522
 H        -13.505963    3.332244   -0.024266
       120
S1: Total Energy = -4653.61266362
 C         -6.070902   -0.307458   -0.061453
 C         -5.252689   -1.466192   -0.067341
 C         -3.897918   -1.187821   -0.055640
 C         -3.637273    0.199826   -0.033975
 S         -5.071211    1.172486   -0.032122
 C         -2.595883   -2.003203   -0.022421
 C          6.070901    0.307457    0.061440
 C          5.252687    1.466190    0.067286
 C          3.897916    1.187818    0.055524
 C          3.637274   -0.199829    0.033846
 S          5.071212   -1.172488    0.032063
 C          2.595883    2.003201    0.022255
 C         -7.480172   -0.430345   -0.078071
 C         -8.528637    0.478875   -0.073213
 C         -8.391975    1.954424   -0.039881
 O         -7.349525    2.604113   -0.021632
 C         -9.759306    2.513940   -0.031600
 C        -10.138433    3.847689    0.000125
 C        -11.505230    4.143718    0.003111
 C        -12.444569    3.106749   -0.025745
 C        -12.056644    1.761461   -0.058277
 C        -10.690809    1.456787   -0.061384
 C         -9.953507    0.168236   -0.092435
 C        -10.559303   -1.087343   -0.136146
 C        -11.972115   -1.279795   -0.148782
 N        -13.118428   -1.496608   -0.160586
 C         -9.856792   -2.327204   -0.176929
 N         -9.332328   -3.369310   -0.212573
 H         -7.764219   -1.476217   -0.095907
 H         -9.383820    4.628120    0.021949
 H        -12.817644    0.993541   -0.079693
 C          7.480170    0.430345    0.078140
 C          8.528637   -0.478874    0.073356
 C          8.391980   -1.954424    0.040032
 O          7.349532   -2.604115    0.021708
 C          9.759312   -2.513938    0.031869
 C         10.138443   -3.847687    0.000203
 C         11.505241   -4.143714   -0.002662
 C         12.444576   -3.106743    0.026254
 C         12.056646   -1.761455    0.058729
 C         10.690811   -1.456783    0.061715
 C          9.953504   -0.168233    0.092682
 C         10.559295    1.087349    0.136411
 C         11.972105    1.279804    0.149152
 N         13.118416    1.496620    0.161038
 C          9.856777    2.327209    0.177111
 N          9.332307    3.369314    0.212688
 H          7.764215    1.476217    0.095990
 H          9.383833   -4.628119   -0.021669
 H         12.817644   -0.993534    0.080197
 C         -2.593907   -2.859978    1.260383
 C         -3.315885   -4.064031    1.291440
 C         -3.398038   -4.817859    2.458374
 C         -2.762774   -4.404126    3.639243
 C         -2.050396   -3.201517    3.604560
 C         -1.967798   -2.438361    2.437290
 H         -3.812614   -4.420552    0.393743
 H         -3.966172   -5.745288    2.451693
 H         -1.550037   -2.848836    4.503325
 H         -1.412995   -1.505671    2.457590
 C         -2.354263   -2.831681   -1.302848
 C         -1.436738   -3.892455   -1.298768
 C         -1.154638   -4.598574   -2.467149
 C         -1.772749   -4.273181   -3.681979
 C         -2.687448   -3.213322   -3.680533
 C         -2.971096   -2.500370   -2.515346
 H         -0.953855   -4.188769   -0.372395
 H         -0.445454   -5.422279   -2.430064
 H         -3.192129   -2.939903   -4.604226
 H         -3.687021   -1.685550   -2.557401
 C          2.354223    2.831688    1.302668
 C          1.436705    3.892469    1.298548
 C          1.154567    4.598598    2.466914
 C          1.772634    4.273208    3.681769
 C          2.687324    3.213343    3.680363
 C          2.971009    2.500381    2.515190
 H          0.953857    4.188781    0.372157
 H          0.445391    5.422307    2.429799
 H          3.191970    2.939926    4.604076
 H          3.686926    1.685555    2.557277
 C          2.593950    2.859966   -1.260556
 C          3.315949    4.064005   -1.291607
 C          3.398139    4.817825   -2.458543
 C          2.762891    4.404094   -3.639423
 C          2.050491    3.201499   -3.604746
 C          1.967856    2.438352   -2.437472
 H          3.812667    4.420524   -0.393902
 H          3.966289    5.745244   -2.451858
 H          1.550143    2.848820   -4.503518
 H          1.413036    1.505672   -2.457776
 C         -2.834887   -5.241654    4.893885
 H         -2.525234   -4.670316    5.774456
 H         -3.851064   -5.612561    5.068775
 C         -1.447731   -5.026822   -4.949807
 H         -2.274200   -4.980385   -5.666206
 H         -0.562474   -4.605181   -5.444253
 C          1.447576    5.026863    4.949579
 H          0.562213    4.605323    5.443922
 H          2.273964    4.980310    5.666063
 C          2.835047    5.241612   -4.894070
 H          3.851242    5.612467   -5.068961
 H          2.525366    4.670283   -5.774638
 H         -2.179858   -6.119844    4.822765
 H         -1.232241   -6.080851   -4.745171
 H          1.232238    6.080924    4.744941
 H          2.180061    6.119834   -4.822955
 C          2.245357   -0.403660    0.013061
 C          1.583800    0.848186   -0.004926
 C          0.206327    0.685648   -0.002355
 C         -0.206326   -0.685651    0.002144
 C         -2.245356    0.403657   -0.013240
 C         -1.583799   -0.848189    0.004734
 S         -1.173977    1.781306   -0.013976
 S          1.173978   -1.781309    0.013775
 H         -5.688643   -2.458871   -0.078698
 H          5.688641    2.458870    0.078668
 H         13.504187   -3.345573    0.023475
 H         11.840449   -5.176308   -0.027358
 H        -11.840435    5.176312    0.027855
 H        -13.504179    3.345580   -0.022872
