       126
S0: Total Energy = -5602.47210076
 C          5.694548    2.135236    0.047871
 C          5.443644    0.743195    0.022479
 C          4.070764    0.438715    0.023018
 C          3.295681    1.597841    0.039602
 S          4.207984    3.081881    0.058013
 C          3.183359   -0.814757   -0.026737
 C         -5.694542   -2.135240   -0.047782
 C         -5.443644   -0.743197   -0.022422
 C         -4.070765   -0.438712   -0.023054
 C         -3.295678   -1.597835   -0.039672
 S         -4.207975   -3.081879   -0.057972
 C         -3.183359    0.814766    0.026598
 C          9.289052    1.498558    0.070668
 C         10.364015    0.629025    0.065164
 C         10.281233   -0.848251    0.031122
 O          9.267120   -1.539804    0.011083
 C         11.670566   -1.356091    0.024738
 C         12.097445   -2.676355   -0.006008
 C         13.472526   -2.922624   -0.006842
 C         14.376352   -1.853878    0.022888
 C         13.940702   -0.524529    0.054317
 C         12.564652   -0.269841    0.055286
 C         11.781090    0.994472    0.085163
 C         12.342360    2.262281    0.127945
 C         13.749817    2.504775    0.141243
 N         14.886187    2.763555    0.153596
 C         11.595102    3.478667    0.166584
 N         11.032745    4.499457    0.200240
 H          9.538601    2.553479    0.091369
 H         11.371000   -3.482941   -0.028555
 H         14.673948    0.269822    0.076499
 C         -9.289050   -1.498576   -0.070485
 C        -10.364009   -0.629039   -0.064994
 C        -10.281228    0.848238   -0.031020
 O         -9.267116    1.539795   -0.011090
 C        -11.670562    1.356074   -0.024545
 C        -12.097442    2.676337    0.006220
 C        -13.472524    2.922603    0.007133
 C        -14.376349    1.853855   -0.022542
 C        -13.940698    0.524507   -0.053990
 C        -12.564648    0.269823   -0.055036
 C        -11.781084   -0.994488   -0.084961
 C        -12.342355   -2.262296   -0.127721
 C        -13.749813   -2.504790   -0.140951
 N        -14.886184   -2.763571   -0.153247
 C        -11.595103   -3.478685   -0.166391
 N        -11.032757   -4.499480   -0.200075
 H         -9.538601   -2.553497   -0.091149
 H        -11.370997    3.482924    0.028721
 H        -14.673943   -0.269846   -0.076128
 C          3.482492   -1.576264   -1.336259
 C          4.559535   -2.473546   -1.399023
 C          4.893509   -3.108123   -2.593474
 C          4.166641   -2.876312   -3.769431
 C          3.097432   -1.976274   -3.703368
 C          2.759637   -1.335116   -2.510255
 H          5.138745   -2.690016   -0.506476
 H          5.735957   -3.795735   -2.609674
 H          2.514892   -1.769443   -4.598205
 H          1.927349   -0.638473   -2.504277
 C          3.303676   -1.700827    1.232155
 C          2.828311   -3.020713    1.217194
 C          2.861314   -3.806978    2.367329
 C          3.366096   -3.308421    3.575938
 C          3.839627   -1.991572    3.585856
 C          3.806790   -1.198652    2.437855
 H          2.449708   -3.450190    0.294497
 H          2.492841   -4.829269    2.320833
 H          4.247123   -1.575689    4.504416
 H          4.182718   -0.181727    2.488511
 C         -3.303774    1.700796   -1.232315
 C         -2.828444    3.020695   -1.217425
 C         -2.861542    3.806922   -2.367584
 C         -3.366387    3.308312   -3.576145
 C         -3.839883    1.991451   -3.585991
 C         -3.806952    1.198568   -2.437966
 H         -2.449794    3.450211   -0.294767
 H         -2.493094    4.829224   -2.321144
 H         -4.247428    1.575527   -4.504511
 H         -4.182859    0.181632   -2.488564
 C         -3.482396    1.576315    1.336116
 C         -4.559428    2.473610    1.398924
 C         -4.893312    3.108232    2.593375
 C         -4.166362    2.876457    3.769290
 C         -3.097164    1.976412    3.703183
 C         -2.759458    1.335208    2.510069
 H         -5.138698    2.690056    0.506410
 H         -5.735753    3.795852    2.609610
 H         -2.514560    1.769611    4.597985
 H         -1.927173    0.638560    2.504054
 C          4.513639   -3.591881   -5.053546
 H          4.128013   -3.056146   -5.926827
 H          5.597436   -3.699633   -5.170826
 C          3.380191   -4.157791    4.824928
 H          4.124684   -3.800342    5.543401
 H          2.404072   -4.138743    5.327680
 C         -3.380583    4.157642   -4.825162
 H         -2.404502    4.138585   -5.327986
 H         -4.125127    3.800163   -5.543568
 C         -4.513270    3.592072    5.053404
 H         -5.597065    3.699670    5.170842
 H         -4.127431    3.056460    5.926666
 H          4.084627   -4.602559   -5.073205
 H          3.604007   -5.205113    4.595009
 H         -3.604390    5.204969   -4.595259
 H         -4.084408    4.602816    5.072919
 C         -1.913105   -1.241256   -0.028053
 C         -1.800658    0.145499    0.019390
 C         -0.451479    0.543886    0.018576
 C          0.451480   -0.543870   -0.018890
 C          1.913108    1.241267    0.027863
 C          1.800659   -0.145486   -0.019609
 S          0.387749    2.085251    0.065799
 S         -0.387747   -2.085233   -0.066170
 H        -15.443445    2.055777   -0.021304
 H        -13.844039    3.942769    0.030848
 H         13.844041   -3.942791   -0.030542
 H         15.443448   -2.055802    0.021708
 S         -6.923510    0.172358   -0.019118
 S          6.923504   -0.172369    0.019230
 C          7.045198    2.462884    0.065223
 C         -7.045191   -2.462897   -0.065080
 H         -7.443510   -3.471254   -0.084692
 H          7.443522    3.471239    0.084864
 C          7.882809    1.331925    0.054877
 C         -7.882808   -1.331945   -0.054725
       126
T1: Total Energy = -5602.43557735
 C          5.658887   -2.150054   -0.039964
 C          5.403458   -0.747644   -0.012156
 C          4.049927   -0.443572   -0.008911
 C          3.250222   -1.619510   -0.025794
 S          4.174140   -3.106680   -0.048841
 C          3.172020    0.816909    0.038125
 C         -5.658891    2.150047    0.039946
 C         -5.403460    0.747638    0.012138
 C         -4.049929    0.443568    0.008894
 C         -3.250225    1.619507    0.025772
 S         -4.174144    3.106676    0.048819
 C         -3.172022   -0.816913   -0.038139
 C          9.248925   -1.507778   -0.068104
 C         10.328048   -0.631147   -0.064581
 C         10.242154    0.846601   -0.029529
 O          9.225291    1.534989   -0.004243
 C         11.629410    1.359728   -0.029762
 C         12.053619    2.680158   -0.001449
 C         13.429175    2.929493   -0.007390
 C         14.333074    1.862136   -0.041251
 C         13.898845    0.530910   -0.070155
 C         12.524150    0.273991   -0.064352
 C         11.739336   -0.990982   -0.089714
 C         12.304353   -2.262613   -0.132818
 C         13.711045   -2.501223   -0.151541
 N         14.848690   -2.756879   -0.168239
 C         11.562011   -3.480628   -0.165848
 N         11.005550   -4.505484   -0.195037
 H          9.501518   -2.561445   -0.090545
 H         11.325895    3.485599    0.024375
 H         14.633278   -0.262283   -0.095798
 C         -9.248927    1.507766    0.068106
 C        -10.328050    0.631133    0.064587
 C        -10.242154   -0.846614    0.029519
 O         -9.225291   -1.535001    0.004214
 C        -11.629410   -1.359743    0.029765
 C        -12.053618   -2.680173    0.001445
 C        -13.429174   -2.929509    0.007400
 C        -14.333073   -1.862154    0.041279
 C        -13.898845   -0.530927    0.070189
 C        -12.524151   -0.274007    0.064373
 C        -11.739337    0.990967    0.089739
 C        -12.304355    2.262597    0.132865
 C        -13.711048    2.501205    0.151608
 N        -14.848692    2.756859    0.168322
 C        -11.562014    3.480612    0.165903
 N        -11.005554    4.505468    0.195097
 H         -9.501521    2.561433    0.090553
 H        -11.325893   -3.485612   -0.024393
 H        -14.633278    0.262265    0.095846
 C          3.474339    1.572778    1.350600
 C          4.548417    2.473494    1.414416
 C          4.886156    3.099110    2.612397
 C          4.166699    2.854369    3.790406
 C          3.101341    1.949733    3.723171
 C          2.760616    1.316479    2.526919
 H          5.122587    2.699245    0.521094
 H          5.725944    3.789781    2.629808
 H          2.525508    1.732008    4.619659
 H          1.932497    0.614721    2.520782
 C          3.302309    1.700291   -1.221482
 C          2.846467    3.027057   -1.207438
 C          2.885380    3.808900   -2.360330
 C          3.377004    3.299155   -3.569855
 C          3.830551    1.975247   -3.578440
 C          3.790311    1.186058   -2.428223
 H          2.479867    3.465360   -0.284103
 H          2.532778    4.836754   -2.315218
 H          4.227108    1.550580   -4.497655
 H          4.150190    0.163208   -2.478695
 C         -3.302305   -1.700286    1.221475
 C         -2.846359   -3.027017    1.207476
 C         -2.885263   -3.808841    2.360381
 C         -3.376981   -3.299112    3.569875
 C         -3.830628   -1.975238    3.578415
 C         -3.790397   -1.186067    2.428186
 H         -2.479680   -3.465308    0.284167
 H         -2.532580   -4.836669    2.315305
 H         -4.227259   -1.550584    4.497604
 H         -4.150355   -0.163244    2.478623
 C         -3.474345   -1.572784   -1.350613
 C         -4.548504   -2.473402   -1.414465
 C         -4.886243   -3.099007   -2.612452
 C         -4.166708   -2.854350   -3.790431
 C         -3.101272   -1.949808   -3.723161
 C         -2.760547   -1.316565   -2.526903
 H         -5.122739   -2.699084   -0.521168
 H         -5.726093   -3.789602   -2.629891
 H         -2.525378   -1.732150   -4.619625
 H         -1.932366   -0.614881   -2.520738
 C          4.518233    3.560244    5.078425
 H          4.138897    3.016202    5.949246
 H          5.602232    3.670643    5.190579
 C          3.397833    4.144623   -4.821222
 H          4.133771    3.774362   -5.541906
 H          2.419163    4.138160   -5.319249
 C         -3.397801   -4.144558    4.821257
 H         -2.419160   -4.137992    5.319340
 H         -4.133815   -3.774353    5.541892
 C         -4.518251   -3.560211   -5.078456
 H         -5.602264   -3.670358   -5.190736
 H         -4.138682   -3.016305   -5.949259
 H          4.085939    4.569239    5.108110
 H          3.637705    5.189141   -4.595083
 H         -3.637561   -5.189102    4.595125
 H         -4.086195   -4.569310   -5.108033
 C         -1.903140    1.265507    0.020049
 C         -1.784775   -0.156178   -0.026098
 C         -0.466058   -0.549206   -0.019301
 C          0.466056    0.549203    0.019271
 C          1.903138   -1.265509   -0.020075
 C          1.784772    0.156175    0.026075
 S          0.368825   -2.106205   -0.057622
 S         -0.368828    2.106202    0.057589
 H        -15.400111   -2.064883    0.045470
 H        -13.799015   -3.950332   -0.014198
 H         13.799018    3.950316    0.014203
 H         15.400113    2.064864   -0.045432
 S         -6.895513   -0.167301    0.008625
 S          6.895513    0.167292   -0.008634
 C          6.999902   -2.477699   -0.059364
 C         -6.999906    2.477690    0.059356
 H         -7.399345    3.485192    0.081260
 H          7.399339   -3.485202   -0.081266
 C          7.847776   -1.340272   -0.048751
 C         -7.847778    1.340262    0.048745
       126
S1: Total Energy = -5602.41615029
 C          5.670572   -2.143014   -0.035830
 C          5.418904   -0.747058   -0.012794
 C          4.055454   -0.442926   -0.011622
 C          3.266696   -1.611881   -0.024820
 S          4.186425   -3.096659   -0.042202
 C          3.175767    0.815424    0.031796
 C         -5.670574    2.143007    0.035848
 C         -5.418906    0.747050    0.012826
 C         -4.055456    0.442919    0.011672
 C         -3.266699    1.611875    0.024876
 S         -4.186428    3.096652    0.042230
 C         -3.175768   -0.815430   -0.031736
 C          9.268448   -1.506366   -0.065374
 C         10.343351   -0.631993   -0.063479
 C         10.255611    0.847650   -0.028479
 O          9.237080    1.533336   -0.004381
 C         11.641435    1.361461   -0.026600
 C         12.064093    2.682101    0.002769
 C         13.439703    2.933595   -0.001291
 C         14.344581    1.866606   -0.034591
 C         13.912740    0.534863   -0.064729
 C         12.537488    0.274687   -0.060627
 C         11.758342   -0.989079   -0.088077
 C         12.323536   -2.262900   -0.133175
 C         13.729462   -2.501384   -0.148991
 N         14.868002   -2.755562   -0.163119
 C         11.581261   -3.479664   -0.171908
 N         11.023130   -4.504134   -0.205867
 H          9.520031   -2.560450   -0.085554
 H         11.335177    3.486545    0.027876
 H         14.648157   -0.257474   -0.089990
 C         -9.268451    1.506359    0.065335
 C        -10.343354    0.631986    0.063426
 C        -10.255614   -0.847658    0.028436
 O         -9.237082   -1.533344    0.004375
 C        -11.641438   -1.361467    0.026504
 C        -12.064096   -2.682108   -0.002883
 C        -13.439706   -2.933600    0.001125
 C        -14.344585   -1.866611    0.034391
 C        -13.912744   -0.534868    0.064549
 C        -12.537491   -0.274693    0.060501
 C        -11.758345    0.989073    0.087986
 C        -12.323540    2.262894    0.133088
 C        -13.729466    2.501379    0.148852
 N        -14.868007    2.755558    0.162936
 C        -11.581264    3.479655    0.171879
 N        -11.023133    4.504124    0.205879
 H         -9.520034    2.560443    0.085500
 H        -11.335180   -3.486552   -0.027963
 H        -14.648162    0.257470    0.089783
 C          3.479434    1.576569    1.340558
 C          4.551930    2.479572    1.398112
 C          4.890738    3.111023    2.592686
 C          4.173893    2.870196    3.773157
 C          3.110040    1.963248    3.712041
 C          2.768184    1.324083    2.519337
 H          5.123979    2.702278    0.502667
 H          5.729316    3.803235    2.605509
 H          2.536344    1.748490    4.610598
 H          1.941622    0.620399    2.518057
 C          3.300103    1.693780   -1.231866
 C          2.838666    3.018635   -1.222405
 C          2.872942    3.795944   -2.378484
 C          3.365340    3.283316   -3.586567
 C          3.824702    1.961360   -3.590336
 C          3.789275    1.176630   -2.436943
 H          2.471637    3.459206   -0.300273
 H          2.516298    4.822548   -2.337102
 H          4.222261    1.534815   -4.508224
 H          4.153791    0.155228   -2.483319
 C         -3.300117   -1.693782    1.231929
 C         -2.838578   -3.018602    1.222515
 C         -2.872865   -3.795898    2.378602
 C         -3.365374   -3.283292    3.586649
 C         -3.824836   -1.961370    3.590371
 C         -3.789399   -1.176653    2.436970
 H         -2.471457   -3.459158    0.300412
 H         -2.516139   -4.822476    2.337256
 H         -4.222482   -1.534842    4.508229
 H         -4.153993   -0.155277    2.483311
 C         -3.479418   -1.576574   -1.340503
 C         -4.551967   -2.479512   -1.398103
 C         -4.890756   -3.110952   -2.592688
 C         -4.173839   -2.870177   -3.773126
 C         -3.109937   -1.963292   -3.711966
 C         -2.768100   -1.324138   -2.519250
 H         -5.124075   -2.702175   -0.502684
 H         -5.729375   -3.803114   -2.605545
 H         -2.536184   -1.748575   -4.610497
 H         -1.941497   -0.620502   -2.517936
 C          4.526591    3.582443    5.057280
 H          4.149546    3.041896    5.931248
 H          5.610608    3.694942    5.166984
 C          3.381212    4.123818   -4.841296
 H          4.117905    3.753783   -5.561293
 H          2.402009    4.111140   -5.338155
 C         -3.381258   -4.123777    4.841388
 H         -2.402093   -4.111000    5.338318
 H         -4.118038   -3.753801    5.561326
 C         -4.526525   -3.582409   -5.057261
 H         -5.610553   -3.694689   -5.167093
 H         -4.149262   -3.041979   -5.931206
 H          4.092876    4.590939    5.082991
 H          3.616844    5.170235   -4.619594
 H         -3.616775   -5.170219    4.619684
 H         -4.093018   -4.590997   -5.082872
 C         -1.905080    1.255042    0.018888
 C         -1.790237   -0.152919   -0.024278
 C         -0.459865   -0.547525   -0.017969
 C          0.459863    0.547519    0.018055
 C          1.905078   -1.255049   -0.018812
 C          1.790236    0.152913    0.024356
 S          0.377126   -2.097720   -0.055333
 S         -0.377128    2.097714    0.055411
 H        -15.411444   -2.070780    0.037137
 H        -13.808446   -3.954789   -0.021418
 H         13.808442    3.954785    0.021235
 H         15.411440    2.070776   -0.037378
 S         -6.907904   -0.167356    0.011283
 S          6.907902    0.167348   -0.011266
 C          7.018844   -2.472819   -0.053873
 C         -7.018847    2.472811    0.053866
 H         -7.416623    3.481021    0.072572
 H          7.416620   -3.481029   -0.072591
 C          7.860299   -1.339602   -0.046372
 C         -7.860302    1.339594    0.046361
