       126
S0: Total Energy = -5999.38961832
 C          5.616087   -2.327190   -0.039917
 C          5.413626   -0.926415   -0.011384
 C          4.052954   -0.574471   -0.011715
 C          3.238539   -1.707064   -0.031735
 S          4.097642   -3.221449   -0.052538
 C          3.208459    0.708251    0.040701
 C         -5.616101    2.327176    0.039930
 C         -5.413634    0.926402    0.011397
 C         -4.052961    0.574463    0.011727
 C         -3.238550    1.707059    0.031749
 S         -4.097659    3.221441    0.052554
 C         -3.208464   -0.708256   -0.040692
 C          9.228576   -1.816657   -0.065813
 C         10.335562   -0.985995   -0.062414
 C         10.307027    0.491505   -0.027796
 O          9.324156    1.225592   -0.002087
 C         11.715620    0.945801   -0.029006
 C         12.183824    2.253056   -0.001998
 C         13.558921    2.433462   -0.009840
 C         14.422989    1.330854   -0.043942
 C         13.952839    0.023853   -0.071308
 C         12.566687   -0.172233   -0.063345
 C         11.736232   -1.405379   -0.087324
 C         12.253134   -2.691760   -0.128573
 C         13.651901   -2.978286   -0.144998
 N         14.781740   -3.264025   -0.159367
 C         11.464337   -3.881521   -0.161270
 N         10.867590   -4.882615   -0.190123
 H          9.441240   -2.879562   -0.088622
 H         11.508719    3.101639    0.023954
 H         14.677565   -0.778123   -0.097045
 C         -9.228587    1.816626    0.065813
 C        -10.335570    0.985960    0.062408
 C        -10.307030   -0.491539    0.027785
 O         -9.324156   -1.225623    0.002078
 C        -11.715621   -0.945841    0.028985
 C        -12.183820   -2.253097    0.001967
 C        -13.558917   -2.433508    0.009800
 C        -14.422988   -1.330903    0.043902
 C        -13.952844   -0.023900    0.071278
 C        -12.566692    0.172190    0.063324
 C        -11.736242    1.405339    0.087315
 C        -12.253148    2.691718    0.128572
 C        -13.651916    2.978239    0.144992
 N        -14.781756    3.263975    0.159357
 C        -11.464355    3.881481    0.161287
 N        -10.867611    4.882577    0.190145
 H         -9.441256    2.879531    0.088622
 H        -11.508713   -3.101677   -0.023984
 H        -14.677572    0.778073    0.097015
 C          3.530028    1.452550    1.354973
 C          4.638020    2.310814    1.425233
 C          4.990705    2.927305    2.623814
 C          4.252663    2.715427    3.796651
 C          3.152455    1.854083    3.723032
 C          2.795600    1.231289    2.525698
 H          5.226984    2.511474    0.535363
 H          5.856589    3.584973    2.645792
 H          2.560324    1.663565    4.615142
 H          1.939125    0.564686    2.514157
 C          3.362098    1.595147   -1.213902
 C          2.937437    2.932107   -1.192766
 C          2.999970    3.721530   -2.339622
 C          3.484606    3.209258   -3.550789
 C          3.907229    1.875144   -3.566837
 C          3.844741    1.079130   -2.422216
 H          2.576064    3.371820   -0.267992
 H          2.671102    4.756980   -2.288377
 H          4.297568    1.447847   -4.487577
 H          4.181088    0.048652   -2.477766
 C         -3.362098   -1.595146    1.213918
 C         -2.937152   -2.932018    1.192895
 C         -2.999670   -3.721406    2.339776
 C         -3.484571   -3.209185    3.550859
 C         -3.907467   -1.875156    3.566797
 C         -3.844994   -1.079177    2.422151
 H         -2.575558   -3.371693    0.268190
 H         -2.670579   -4.756790    2.288618
 H         -4.298010   -1.447900    4.487470
 H         -4.181555   -0.048764    2.477616
 C         -3.530030   -1.452544   -1.354972
 C         -4.638205   -2.310565   -1.425346
 C         -4.990877   -2.927012   -2.623952
 C         -4.252645   -2.715329   -3.796705
 C         -3.152261   -1.854219   -3.722976
 C         -2.795419   -1.231467   -2.525616
 H         -5.227328   -2.511065   -0.535546
 H         -5.856902   -3.584491   -2.646018
 H         -2.559981   -1.663852   -4.615020
 H         -1.938803   -0.565046   -2.513989
 C          4.620866    3.411926    5.085299
 H          4.214320    2.885618    5.954790
 H          5.707411    3.481470    5.205797
 C          3.530712    4.062918   -4.796048
 H          4.261130    3.680743   -5.516201
 H          2.554513    4.082703   -5.298575
 C         -3.530661   -4.062802    4.796148
 H         -2.554529   -4.082345    5.298814
 H         -4.261267   -3.680760    5.516181
 C         -4.620847   -3.411781   -5.085378
 H         -5.707393   -3.480940   -5.206085
 H         -4.213942   -2.885677   -5.954825
 H          4.227201    4.436776    5.108776
 H          3.793613    5.100043   -4.561502
 H         -3.793296   -5.099996    4.561609
 H         -4.227550   -4.436776   -5.108710
 C         -1.869648    1.304274    0.022424
 C         -1.804045   -0.085783   -0.027327
 C         -0.469260   -0.528865   -0.021714
 C          0.469252    0.528864    0.021727
 C          1.869639   -1.304276   -0.022411
 C          1.804037    0.085781    0.027339
 S          0.317953   -2.097582   -0.067876
 S         -0.317963    2.097580    0.067888
 S         -6.924347    0.063030    0.007155
 S          6.924344   -0.063051   -0.007144
 C          6.953373   -2.701706   -0.058920
 C         -6.953388    2.701686    0.058930
 H         -7.316602    3.723002    0.081408
 H          7.316582   -3.723024   -0.081399
 C          7.830924   -1.600268   -0.047059
 C         -7.830934    1.600244    0.047064
 F        -15.742430   -1.563996    0.050060
 F        -14.092511   -3.661354   -0.014865
 F         14.092519    3.661306    0.014815
 F         15.742431    1.563942   -0.050109
       126
T1: Total Energy = -5999.35362047
 C          5.579957   -2.340887   -0.029302
 C          5.374148   -0.930226    0.002096
 C          4.032041   -0.579000    0.006341
 C          3.192994   -1.726920   -0.014251
 S          4.063326   -3.244775   -0.040194
 C          3.197567    0.710523    0.056947
 C         -5.579950    2.340904    0.029264
 C         -5.374144    0.930242   -0.002108
 C         -4.032038    0.579013   -0.006319
 C         -3.192989    1.726932    0.014274
 S         -4.063318    3.244788    0.040175
 C         -3.197564   -0.710512   -0.056893
 C          9.189404   -1.826430   -0.062033
 C         10.300462   -0.989439   -0.060717
 C         10.269231    0.488957   -0.023846
 O          9.283607    1.219948    0.007939
 C         11.675937    0.948210   -0.031565
 C         12.142107    2.255442   -0.005740
 C         13.517849    2.438326   -0.020420
 C         14.381429    1.337217   -0.059875
 C         13.912243    0.028342   -0.085941
 C         12.527380   -0.169721   -0.071177
 C         11.695702   -1.403205   -0.091647
 C         12.215890   -2.693724   -0.134974
 C         13.613876   -2.976644   -0.157995
 N         14.744999   -3.259544   -0.177810
 C         11.431642   -3.884978   -0.163019
 N         10.840456   -4.890210   -0.188267
 H          9.404610   -2.888281   -0.087112
 H         11.466148    3.103247    0.024415
 H         14.637917   -0.772644   -0.116067
 C         -9.189399    1.826456    0.061938
 C        -10.300458    0.989466    0.060632
 C        -10.269226   -0.488930    0.023800
 O         -9.283602   -1.219921   -0.007980
 C        -11.675932   -0.948184    0.031524
 C        -12.142101   -2.255417    0.005724
 C        -13.517843   -2.438301    0.020409
 C        -14.381423   -1.337191    0.059842
 C        -13.912238   -0.028316    0.085881
 C        -12.527375    0.169748    0.071112
 C        -11.695698    1.403233    0.091553
 C        -12.215888    2.693752    0.134849
 C        -13.613874    2.976669    0.157868
 N        -14.744998    3.259568    0.177680
 C        -11.431642    3.885008    0.162855
 N        -10.840459    4.890243    0.188057
 H         -9.404604    2.888308    0.086992
 H        -11.466142   -3.103222   -0.024413
 H        -14.637913    0.772670    0.115992
 C          3.521686    1.446645    1.375642
 C          4.627967    2.306769    1.449564
 C          4.983463    2.911853    2.652974
 C          4.250641    2.686039    3.826602
 C          3.152996    1.821623    3.749189
 C          2.794086    1.209171    2.547403
 H          5.213580    2.517483    0.560003
 H          5.847659    3.571453    2.678187
 H          2.565803    1.619475    4.641895
 H          1.940606    0.538628    2.533648
 C          3.362604    1.595891   -1.196982
 C          2.960659    2.939823   -1.174771
 C          3.030273    3.725968   -2.323409
 C          3.499870    3.203639   -3.536354
 C          3.899510    1.862423   -3.552975
 C          3.828370    1.069030   -2.407182
 H          2.613079    3.387445   -0.248577
 H          2.719783    4.766987   -2.272055
 H          4.277453    1.427238   -4.475073
 H          4.146243    0.032647   -2.464056
 C         -3.362617   -1.595864    1.197045
 C         -2.960853   -2.939848    1.174782
 C         -3.030486   -3.726004    2.323412
 C         -3.499929   -3.203632    3.536399
 C         -3.899397   -1.862367    3.553070
 C         -3.828236   -1.068963    2.407284
 H         -2.613404   -3.387503    0.248553
 H         -2.720137   -4.767062    2.272018
 H         -4.277221   -1.427148    4.475200
 H         -4.145974   -0.032541    2.464197
 C         -3.521667   -1.446668   -1.375571
 C         -4.627777   -2.307020   -1.449391
 C         -4.983270   -2.912162   -2.652772
 C         -4.250612   -2.686183   -3.826471
 C         -3.153134   -1.821548   -3.749157
 C         -2.794227   -1.209037   -2.547399
 H         -5.213252   -2.517870   -0.559770
 H         -5.847332   -3.571941   -2.677905
 H         -2.566070   -1.619272   -4.641918
 H         -1.940881   -0.538323   -2.533721
 C          4.622417    3.370204    5.120589
 H          4.220519    2.834356    5.986331
 H          5.709222    3.441210    5.237146
 C          3.553926    4.054659   -4.782917
 H          4.274106    3.659335   -5.506168
 H          2.575507    4.089919   -5.280183
 C         -3.554007   -4.054666    4.782952
 H         -2.575562   -4.090045    5.280158
 H         -4.274098   -3.659271    5.506253
 C         -4.622384   -3.370406   -5.120429
 H         -5.709189   -3.441487   -5.236948
 H         -4.220552   -2.834553   -5.986197
 H          4.226304    4.393754    5.155337
 H          3.835177    5.087467   -4.550931
 H         -3.835390   -5.087438    4.550967
 H         -4.226207   -4.393931   -5.155163
 C         -1.858855    1.327527    0.011576
 C         -1.788637   -0.097192   -0.036758
 C         -0.483685   -0.533761   -0.022898
 C          0.483689    0.533770    0.022971
 C          1.858860   -1.327517   -0.011523
 C          1.788642    0.097201    0.036820
 S          0.299264   -2.117640   -0.058259
 S         -0.299260    2.117650    0.058324
 S         -6.897360    0.068683   -0.006114
 S          6.897362   -0.068663    0.006089
 C          6.908347   -2.715707   -0.051006
 C         -6.908340    2.715729    0.050931
 H         -7.272160    3.736375    0.076123
 H          7.272169   -3.736352   -0.076223
 C          7.795842   -1.608944   -0.039043
 C         -7.795837    1.608968    0.038970
 F        -15.701453   -1.570009    0.072680
 F        -14.049309   -3.668295   -0.002641
 F         14.049316    3.668320    0.002654
 F         15.701458    1.570034   -0.072708
       126
S1: Total Energy = -5999.33514693
 C          5.591594   -2.334245   -0.024652
 C          5.389026   -0.929912    0.004126
 C          4.037401   -0.578267    0.006637
 C          3.209096   -1.719904   -0.012398
 S          4.075466   -3.235256   -0.034886
 C          3.201007    0.709129    0.055672
 C         -5.591603    2.334254    0.024800
 C         -5.389028    0.929922   -0.004007
 C         -4.037401    0.578283   -0.006514
 C         -3.209101    1.719923    0.012541
 S         -4.075479    3.235271    0.035052
 C         -3.201007   -0.709110   -0.055573
 C          9.208305   -1.825195   -0.058549
 C         10.315131   -0.990512   -0.059256
 C         10.282359    0.489901   -0.022523
 O          9.295085    1.218340    0.009760
 C         11.687646    0.949608   -0.031017
 C         12.152544    2.257001   -0.005917
 C         13.528465    2.441680   -0.021538
 C         14.392896    1.340896   -0.061143
 C         13.925857    0.031399   -0.086549
 C         12.540268   -0.169647   -0.070905
 C         11.714416   -1.401912   -0.091225
 C         12.234411   -2.694732   -0.135912
 C         13.631588   -2.977776   -0.158291
 N         14.763513   -3.259638   -0.177502
 C         11.450086   -3.884737   -0.166480
 N         10.857156   -4.889560   -0.193817
 H          9.422526   -2.887408   -0.082312
 H         11.475606    3.104041    0.024282
 H         14.652320   -0.768864   -0.116843
 C         -9.208312    1.825185    0.058604
 C        -10.315134    0.990497    0.059232
 C        -10.282354   -0.489914    0.022424
 O         -9.295075   -1.218347   -0.009847
 C        -11.687639   -0.949628    0.030802
 C        -12.152530   -2.257021    0.005587
 C        -13.528451   -2.441707    0.021109
 C        -14.392889   -1.340930    0.060732
 C        -13.925858   -0.031432    0.086251
 C        -12.540269    0.169621    0.070706
 C        -11.714423    1.401889    0.091155
 C        -12.234427    2.694703    0.135910
 C        -13.631606    2.977738    0.158242
 N        -14.763533    3.259593    0.177416
 C        -11.450109    3.884709    0.166631
 N        -10.857185    4.889532    0.194090
 H         -9.422539    2.887396    0.082397
 H        -11.475586   -3.104056   -0.024624
 H        -14.652326    0.768826    0.116550
 C          3.525466    1.447300    1.372871
 C          4.631629    2.307800    1.444121
 C          4.987503    2.915717    2.645942
 C          4.255127    2.692596    3.820426
 C          3.157471    1.827874    3.745557
 C          2.798087    1.212537    2.545446
 H          5.216813    2.516348    0.553764
 H          5.851685    3.575378    2.669295
 H          2.570667    1.627879    4.638988
 H          1.944878    0.541565    2.533810
 C          3.361415    1.592830   -1.199974
 C          2.956959    2.935992   -1.178664
 C          3.023179    3.720688   -2.328490
 C          3.491712    3.197519   -3.541563
 C          3.893978    1.857035   -3.557076
 C          3.826388    1.065042   -2.410142
 H          2.610472    3.384232   -0.252326
 H          2.711080    4.761258   -2.278019
 H          4.271347    1.421425   -4.479187
 H          4.146228    0.029193   -2.465764
 C         -3.361403   -1.592822    1.200068
 C         -2.956926   -2.935978    1.178744
 C         -3.023133   -3.720687    2.328562
 C         -3.491674   -3.197537    3.541640
 C         -3.893962   -1.857059    3.557166
 C         -3.826384   -1.065054    2.410240
 H         -2.610435   -3.384204    0.252400
 H         -2.711019   -4.761251    2.278081
 H         -4.271338   -1.421463    4.479281
 H         -4.146242   -0.029210    2.465872
 C         -3.525472   -1.447269   -1.372774
 C         -4.631605   -2.307809   -1.444012
 C         -4.987485   -2.915717   -2.645836
 C         -4.255146   -2.692548   -3.820334
 C         -3.157520   -1.827788   -3.745476
 C         -2.798129   -1.212460   -2.545363
 H         -5.216757   -2.516395   -0.553644
 H         -5.851643   -3.575411   -2.669180
 H         -2.570744   -1.627757   -4.638918
 H         -1.944943   -0.541458   -2.533733
 C          4.627376    3.379845    5.112583
 H          4.225623    2.846234    5.979759
 H          5.714217    3.450965    5.228606
 C          3.542200    4.046977   -4.789295
 H          4.262282    3.652292   -5.512967
 H          2.563021    4.079330   -5.285265
 C         -3.542150   -4.047008    4.789365
 H         -2.562974   -4.079343    5.285340
 H         -4.262245   -3.652346    5.513036
 C         -4.627405   -3.379786   -5.112494
 H         -5.714249   -3.450812   -5.228557
 H         -4.225574   -2.846223   -5.979662
 H          4.231455    4.403554    5.144846
 H          3.821403    5.080714   -4.559045
 H         -3.821329   -5.080749    4.559103
 H         -4.231577   -4.403530   -5.144724
 C         -1.861111    1.317502    0.010003
 C         -1.793718   -0.093901   -0.037328
 C         -0.477698   -0.532370   -0.022960
 C          0.477697    0.532395    0.023049
 C          1.861107   -1.317479   -0.009893
 C          1.793716    0.093925    0.037426
 S          0.307522   -2.109731   -0.058409
 S         -0.307526    2.109755    0.058494
 S         -6.909059    0.068622   -0.007049
 S          6.909062   -0.068619    0.007123
 C          6.926845   -2.711195   -0.045506
 C         -6.926856    2.711197    0.045644
 H         -7.289156    3.732425    0.069214
 H          7.289139   -3.732426   -0.069065
 C          7.808054   -1.608188   -0.035219
 C         -7.808059    1.608186    0.035312
 F        -15.712575   -1.575571    0.074363
 F        -14.058720   -3.672481   -0.001229
 F         14.058740    3.672453    0.000686
 F         15.712582    1.575531   -0.074874
