       128
S0: Total Energy = -6149.84097366
 C          8.085091   -1.512050   -0.290292
 C          7.102937   -2.501526   -0.478333
 C          5.812003   -1.987189   -0.461103
 C          5.749845   -0.592237   -0.258840
 C          4.433714   -0.078206   -0.266560
 C          3.500409   -1.098837   -0.460746
 S          7.341828    0.097827   -0.087298
 S          4.217568   -2.690495   -0.637812
 C          3.962415    1.372253   -0.182340
 H          7.357469   -3.546382   -0.616505
 C         -8.085100    1.512081    0.290520
 C         -7.102948    2.501545    0.478640
 C         -5.812012    1.987209    0.461396
 C         -5.749858    0.592276    0.259019
 C         -4.433732    0.078232    0.266730
 C         -3.500422    1.098833    0.461028
 S         -7.341834   -0.097777    0.087396
 S         -4.217574    2.690482    0.638215
 C         -3.962511   -1.372238    0.182383
 H         -7.357484    3.546391    0.616880
 C          9.452487   -1.878174   -0.274614
 C         10.637750   -1.181458   -0.122023
 C         10.762531    0.279023    0.072033
 O          9.862141    1.109688    0.134678
 C         12.209104    0.573363    0.177726
 C         12.809439    1.811689    0.364903
 C         14.194243    1.840042    0.434141
 C         14.938788    0.658517    0.318064
 C         14.336588   -0.579294    0.130754
 C         12.938980   -0.621869    0.058807
 C         11.986471   -1.747723   -0.130364
 C         12.366666   -3.072885   -0.279903
 C         13.726966   -3.507105   -0.273108
 N         14.820162   -3.911144   -0.275002
 C         11.459740   -4.161511   -0.456910
 N         10.763415   -5.084898   -0.603646
 H          9.553748   -2.948185   -0.417409
 H         12.226067    2.721765    0.454063
 F         14.851436    2.992844    0.613175
 F         16.273763    0.745060    0.392597
 H         14.973734   -1.449038    0.049434
 C         -9.452494    1.878221    0.274818
 C        -10.637760    1.181524    0.122180
 C        -10.762562   -0.278974   -0.071758
 O         -9.862187   -1.109661   -0.134273
 C        -12.209137   -0.573293   -0.177486
 C        -12.809489   -1.811621   -0.364601
 C        -14.194291   -1.839952   -0.433884
 C        -14.938818   -0.658406   -0.317908
 C        -14.336601    0.579407   -0.130663
 C        -12.938995    0.621960   -0.058672
 C        -11.986472    1.747811    0.130442
 C        -12.366644    3.072995    0.279844
 C        -13.726938    3.507236    0.273015
 N        -14.820128    3.911290    0.274883
 C        -11.459697    4.161624    0.456717
 N        -10.763351    5.085014    0.603333
 H         -9.553745    2.948230    0.417640
 H        -12.226129   -2.721711   -0.453688
 F        -14.851501   -2.992753   -0.612863
 F        -16.273792   -0.744929   -0.392475
 H        -14.973734    1.449168   -0.049420
 C          4.839803    2.188727    0.770536
 C          5.736559    3.156288    0.309981
 C          6.546427    3.857719    1.207668
 C          6.482703    3.619329    2.583087
 C          5.578738    2.645309    3.037747
 C          4.775920    1.937230    2.150568
 H          5.809775    3.371163   -0.750487
 H          7.237077    4.604621    0.824440
 H          5.505409    2.438513    4.103090
 H          4.084293    1.191449    2.529154
 C          3.797159    2.018224   -1.565212
 C          3.069005    3.214318   -1.671615
 C          2.902625    3.838025   -2.903460
 C          3.461402    3.298338   -4.073345
 C          4.193157    2.112832   -3.958468
 C          4.356647    1.476815   -2.724642
 H          2.629308    3.654349   -0.781890
 H          2.331092    4.761745   -2.959950
 H          4.641497    1.671635   -4.845398
 H          4.926662    0.554682   -2.678894
 C         -3.797502   -2.018420    1.565181
 C         -3.069439   -3.214570    1.671528
 C         -2.903273   -3.838457    2.903315
 C         -3.462173   -3.298892    4.073192
 C         -4.193845   -2.113324    3.958370
 C         -4.357120   -1.477132    2.724611
 H         -2.629637   -3.654509    0.781810
 H         -2.331811   -4.762223    2.959756
 H         -4.642288   -1.672223    4.845295
 H         -4.927073   -0.554958    2.678908
 C         -4.839727   -2.188537   -0.770792
 C         -5.736456   -3.156281   -0.310661
 C         -6.546278   -3.857401   -1.208683
 C         -6.482284   -3.618678   -2.584002
 C         -5.578650   -2.644097   -3.038211
 C         -4.775907   -1.936370   -2.150736
 H         -5.810006   -3.371295    0.749756
 H         -7.237207   -4.604190   -0.825737
 H         -5.505710   -2.436489   -4.103424
 H         -4.084665   -1.190034   -2.528937
 C          7.357489    4.374296    3.555320
 H          6.758655    4.868326    4.329919
 H          8.052406    3.698635    4.069388
 C          3.259692    3.972151   -5.409800
 H          3.943810    3.574394   -6.165651
 H          2.236327    3.822529   -5.777842
 C         -3.260657   -3.972858    5.409599
 H         -2.237540   -3.822704    5.778117
 H         -3.945325   -3.575639    6.165237
 C         -7.354570   -4.375506   -3.557033
 H         -8.025483   -3.696928   -4.098161
 H         -6.751535   -4.897735   -4.309771
 H          7.950928    5.140350    3.047262
 H          3.420393    5.053999   -5.340284
 H         -3.420697   -5.054782    5.339802
 H         -7.972463   -5.119158   -3.044904
 C         -2.113238    0.798216    0.414568
 C         -1.740444   -0.451531   -0.072528
 C         -0.341000   -0.577088   -0.197006
 C          0.340997    0.577073    0.197360
 C          2.113227   -0.798232   -0.414248
 C          1.740438    0.451519    0.072842
 S          0.731836   -1.839640   -0.746845
 S         -0.731849    1.839615    0.747213
 O          2.623503    1.390867    0.465219
 O         -2.623480   -1.390866   -0.464981
       128
T1: Total Energy = -6149.80330866
 C          8.070517    1.528613    0.243242
 C          7.080118    2.527800    0.410575
 C          5.795993    2.019106    0.391266
 C          5.728280    0.610690    0.205041
 C          4.429828    0.103642    0.206298
 C          3.473741    1.140986    0.375859
 S          7.331258   -0.084438    0.056481
 S          4.205267    2.737480    0.552993
 C          3.969455   -1.349344    0.170210
 H          7.338417    3.572770    0.537658
 C         -8.070651   -1.528586   -0.243387
 C         -7.080293   -2.527858   -0.410450
 C         -5.796122   -2.019299   -0.390636
 C         -5.728335   -0.610904   -0.204294
 C         -4.429838   -0.103976   -0.205104
 C         -3.473793   -1.141390   -0.374473
 S         -7.331295    0.084385   -0.056310
 S         -4.205412   -2.737810   -0.551906
 C         -3.969370    1.348976   -0.168810
 H         -7.338651   -3.572797   -0.537665
 C          9.434691    1.890868    0.234701
 C         10.623867    1.183020    0.100839
 C         10.743287   -0.281439   -0.072848
 O          9.838020   -1.107917   -0.129696
 C         12.188382   -0.585760   -0.166231
 C         12.784525   -1.828141   -0.333549
 C         14.170567   -1.863191   -0.394120
 C         14.917315   -0.683593   -0.288849
 C         14.318082    0.559997   -0.121088
 C         12.921176    0.609038   -0.058248
 C         11.969308    1.739838    0.110939
 C         12.355151    3.069991    0.248162
 C         13.716270    3.497086    0.243768
 N         14.812142    3.895619    0.246717
 C         11.454534    4.164677    0.408390
 N         10.764770    5.095777    0.541794
 H          9.540711    2.961814    0.362705
 H         12.198327   -2.737209   -0.414383
 F         14.823873   -3.022178   -0.554328
 F         16.253064   -0.774136   -0.353946
 H         14.958140    1.428285   -0.047212
 C         -9.434863   -1.890711   -0.235297
 C        -10.624013   -1.182750   -0.101792
 C        -10.743368    0.281785    0.071292
 O         -9.838043    1.108186    0.128341
 C        -12.188486    0.586310    0.163663
 C        -12.784590    1.828839    0.330016
 C        -14.170666    1.864081    0.389671
 C        -14.917485    0.684521    0.284467
 C        -14.318290   -0.559221    0.117699
 C        -12.921349   -0.608456    0.055792
 C        -11.969500   -1.739451   -0.112201
 C        -12.355397   -3.069677   -0.248570
 C        -13.716565   -3.496623   -0.244658
 N        -14.812484   -3.895023   -0.247955
 C        -11.454793   -4.164602   -0.407248
 N        -10.765040   -5.095894   -0.539357
 H         -9.540945   -2.961641   -0.363382
 H        -12.198335    2.737875    0.410796
 F        -14.823941    3.023220    0.548898
 F        -16.253266    0.775254    0.348629
 H        -14.958403   -1.427468    0.043806
 C          4.832383   -2.182298   -0.780298
 C          5.731705   -3.146087   -0.317503
 C          6.526981   -3.862575   -1.216344
 C          6.445602   -3.642823   -2.593887
 C          5.538860   -2.671960   -3.050411
 C          4.750171   -1.949362   -2.162707
 H          5.819543   -3.345416    0.744795
 H          7.220766   -4.605889   -0.832057
 H          5.452570   -2.479354   -4.117361
 H          4.056311   -1.206190   -2.542943
 C          3.837971   -1.954717    1.575375
 C          3.126188   -3.156659    1.726240
 C          2.982817   -3.744819    2.977819
 C          3.547562   -3.162561    4.124610
 C          4.259267   -1.970455    3.965756
 C          4.402019   -1.370313    2.711307
 H          2.681114   -3.628770    0.856003
 H          2.423700   -4.673381    3.068320
 H          4.709358   -1.495010    4.833712
 H          4.959357   -0.442889    2.633177
 C         -3.837562    1.954443   -1.573905
 C         -3.125682    3.156358   -1.724532
 C         -2.982010    3.744598   -2.976039
 C         -3.546543    3.162453   -4.122992
 C         -4.258341    1.970371   -3.964374
 C         -4.401397    1.370149   -2.709999
 H         -2.680766    3.628380   -0.854168
 H         -2.422818    4.673134   -3.066355
 H         -4.708264    1.495008   -4.832462
 H         -4.958794    0.442746   -2.632058
 C         -4.832444    2.181911    0.781582
 C         -5.731563    3.145840    0.318684
 C         -6.526972    3.862313    1.217419
 C         -6.445928    3.642408    2.594958
 C         -5.539384    2.671409    3.051587
 C         -4.750566    1.948825    2.163986
 H         -5.819137    3.345291   -0.743613
 H         -7.220594    4.605738    0.833053
 H         -5.453351    2.478687    4.118536
 H         -4.056863    1.205547    2.544300
 C          7.304555   -4.414181   -3.567167
 H          6.692569   -4.926924   -4.319025
 H          7.985496   -3.746209   -4.109052
 C          3.381539   -3.807287    5.480057
 H          3.936487   -3.265018    6.251441
 H          2.326759   -3.832621    5.780961
 C         -3.380233    3.807292   -5.478350
 H         -2.325342    3.833101   -5.778816
 H         -3.934634    3.264812   -6.249981
 C         -7.305043    4.413732    3.568122
 H         -7.986407    3.745802    4.109527
 H         -6.693210    4.926062    4.320384
 H          7.911528   -5.166776   -3.055143
 H          3.737357   -4.844547    5.473675
 H         -3.736512    4.844397   -5.472082
 H         -7.911586    5.166661    3.056078
 C         -2.116113   -0.843529   -0.334900
 C         -1.723852    0.463286    0.081456
 C         -0.349388    0.592381    0.169178
 C          0.349349   -0.592938   -0.167340
 C          2.116075    0.843026    0.336582
 C          1.723819   -0.463815   -0.079703
 S          0.733954    1.895618    0.636254
 S         -0.733997   -1.896158   -0.634465
 O          2.614502   -1.401998   -0.445118
 O         -2.614547    1.401492    0.446803
       128
S1: Total Energy = -6149.78589496
 C          8.076378    1.526276    0.255952
 C          7.091096    2.521394    0.425469
 C          5.801683    2.008229    0.406867
 C          5.737410    0.606350    0.219989
 C          4.430509    0.096885    0.222341
 C          3.483862    1.128357    0.395929
 S          7.338218   -0.086563    0.067476
 S          4.210518    2.722536    0.568281
 C          3.971783   -1.356078    0.172132
 H          7.346756    3.566949    0.552983
 C         -8.076360   -1.526280   -0.255899
 C         -7.091074   -2.521395   -0.425412
 C         -5.801664   -2.008226   -0.406823
 C         -5.737395   -0.606345   -0.219952
 C         -4.430498   -0.096873   -0.222336
 C         -3.483846   -1.128339   -0.395941
 S         -7.338205    0.086564   -0.067439
 S         -4.210497   -2.722524   -0.568268
 C         -3.971786    1.356093   -0.172131
 H         -7.346730   -3.566951   -0.552921
 C          9.446343    1.890057    0.245457
 C         10.632067    1.185260    0.108024
 C         10.751106   -0.280394   -0.070436
 O          9.844599   -1.105299   -0.128517
 C         12.195135   -0.584070   -0.166464
 C         12.790938   -1.825647   -0.338283
 C         14.177348   -1.860951   -0.401016
 C         14.923980   -0.681329   -0.293359
 C         14.325753    0.562075   -0.121038
 C         12.928010    0.612344   -0.055769
 C         11.980633    1.741320    0.117490
 C         12.365326    3.073720    0.258077
 C         13.725322    3.501711    0.254411
 N         14.821786    3.900109    0.258023
 C         11.464045    4.166269    0.420774
 N         10.771846    5.095983    0.556207
 H          9.550633    2.961013    0.375804
 H         12.204521   -2.734434   -0.420984
 F         14.830332   -3.019842   -0.565639
 F         16.259663   -0.772075   -0.360829
 H         14.965946    1.430139   -0.045565
 C         -9.446321   -1.890070   -0.245393
 C        -10.632054   -1.185283   -0.107979
 C        -10.751109    0.280372    0.070464
 O         -9.844612    1.105286    0.128561
 C        -12.195145    0.584041    0.166416
 C        -12.790965    1.825616    0.338184
 C        -14.177379    1.860914    0.400835
 C        -14.923999    0.681286    0.293147
 C        -14.325754   -0.562118    0.120894
 C        -12.928008   -0.612380    0.055708
 C        -11.980615   -1.741354   -0.117467
 C        -12.365301   -3.073761   -0.258012
 C        -13.725297   -3.501749   -0.254373
 N        -14.821766   -3.900133   -0.258003
 C        -11.464015   -4.166320   -0.420607
 N        -10.771820   -5.096047   -0.555979
 H         -9.550601   -2.961027   -0.375734
 H        -12.204558    2.734409    0.420900
 F        -14.830379    3.019804    0.565398
 F        -16.259686    0.772028    0.360531
 H        -14.965938   -1.430188    0.045401
 C          4.833336   -2.178545   -0.788422
 C          5.736279   -3.143958   -0.335933
 C          6.531917   -3.849956   -1.242628
 C          6.447497   -3.617872   -2.618009
 C          5.537154   -2.645558   -3.064076
 C          4.748158   -1.933094   -2.168443
 H          5.826571   -3.352708    0.724342
 H          7.228451   -4.594767   -0.866355
 H          5.448364   -2.443551   -4.129067
 H          4.051924   -1.188192   -2.540865
 C          3.839792   -1.977205    1.569886
 C          3.137804   -3.186573    1.706799
 C          2.994486   -3.787059    2.952473
 C          3.550473   -3.210570    4.106557
 C          4.252540   -2.011017    3.961371
 C          4.394411   -1.397993    2.713082
 H          2.700221   -3.654656    0.830544
 H          2.442738   -4.720964    3.032675
 H          4.695432   -1.539932    4.835356
 H          4.943661   -0.464906    2.645144
 C         -3.839834    1.977236   -1.569882
 C         -3.137917    3.186646   -1.706791
 C         -2.994632    3.787144   -2.952461
 C         -3.550590    3.210630   -4.106548
 C         -4.252577    2.011030   -3.961369
 C         -4.394415    1.397994   -2.713081
 H         -2.700352    3.654745   -0.830535
 H         -2.442929    4.721076   -3.032661
 H         -4.695427    1.539914   -4.835358
 H         -4.943598    0.464867   -2.645151
 C         -4.833317    2.178544    0.788457
 C         -5.736253    3.143978    0.336008
 C         -6.531884    3.849948    1.242735
 C         -6.447444    3.617826    2.618106
 C         -5.537131    2.645462    3.064131
 C         -4.748143    1.933030    2.168469
 H         -5.826569    3.352749   -0.724260
 H         -7.228436    4.594757    0.866491
 H         -5.448370    2.443384    4.129111
 H         -4.051941    1.188080    2.540856
 C          7.307508   -4.377328   -3.599631
 H          6.696632   -4.878147   -4.360317
 H          7.991289   -3.703084   -4.130085
 C          3.386675   -3.870083    5.455108
 H          3.920020   -3.320433    6.236421
 H          2.329896   -3.924734    5.744624
 C         -3.386901    3.870207   -5.455081
 H         -2.330068    3.925872   -5.744192
 H         -3.919430    3.320003   -6.236560
 C         -7.307257    4.377421    3.599794
 H         -7.989182    3.702937    4.132307
 H         -6.696052    4.880399    4.358807
 H          7.911712   -5.138110   -3.096531
 H          3.768902   -4.897931    5.444212
 H         -3.770135    4.897687   -5.444396
 H         -7.913346    5.136505    3.096401
 C         -2.114041   -0.829258   -0.354622
 C         -1.728877    0.461567    0.077701
 C         -0.345005    0.588655    0.175577
 C          0.345019   -0.588625   -0.175628
 C          2.114054    0.829281    0.354592
 C          1.728890   -0.461540   -0.077742
 S          0.736717    1.879542    0.662611
 S         -0.736702   -1.879512   -0.662664
 O          2.613501   -1.402739   -0.442721
 O         -2.613485    1.402763    0.442687
