        86
S0: Total Energy = -4462.53041290
 C          7.178370    0.809305    0.028705
 C          6.200770    1.822226    0.081816
 C          4.906271    1.311963    0.042928
 C          4.854653   -0.100563   -0.038610
 C          3.499367   -0.439624   -0.052446
 C          2.754654    0.759915    0.005689
 C          1.329197    0.539582   -0.007200
 C          1.063241   -0.867790   -0.010876
 C         -0.217625   -1.408113    0.021458
 S          6.435147   -0.818583   -0.070004
 H          6.469306    2.870771    0.141135
 C         -7.178417   -0.809365   -0.028275
 C         -6.200836   -1.822326   -0.080999
 C         -4.906329   -1.312092   -0.042010
 C         -4.854690    0.100446    0.039277
 C         -3.499403    0.439478    0.053411
 C         -2.754701   -0.760091   -0.004385
 C         -1.329236   -0.539752    0.008544
 C         -1.063272    0.867609    0.012096
 C          0.217590    1.407941   -0.020165
 S         -6.435166    0.818522    0.070207
 H         -6.469394   -2.870874   -0.140150
 C          8.547931    1.160932    0.052286
 C          9.733338    0.447264    0.016360
 C          9.855677   -1.023597   -0.060209
 O          8.953013   -1.853081   -0.109622
 C         11.303353   -1.331743   -0.065849
 C         11.902039   -2.583403   -0.125557
 C         13.288348   -2.623245   -0.116282
 C         14.035695   -1.439825   -0.048596
 C         13.434991   -0.188519    0.010773
 C         12.036023   -0.134252    0.001498
 C         11.083909    1.006894    0.051146
 C         11.467234    2.338471    0.114415
 C         12.829553    2.765315    0.141297
 N         13.924361    3.164319    0.165453
 C         10.561600    3.441543    0.158028
 N          9.865535    4.376075    0.195018
 H          8.654510    2.238062    0.114322
 H         11.316435   -3.494953   -0.177311
 F         13.944187   -3.789296   -0.171264
 F         15.371999   -1.537937   -0.041908
 H         14.074288    0.681997    0.061394
 C         -8.547984   -1.160944   -0.052099
 C         -9.733365   -0.447213   -0.016596
 C         -9.855654    1.023667    0.059664
 O         -8.952964    1.853114    0.109219
 C        -11.303316    1.331888    0.064743
 C        -11.901950    2.583594    0.123978
 C        -13.288254    2.623513    0.114196
 C        -14.035643    1.440120    0.046486
 C        -13.434989    0.188768   -0.012401
 C        -12.036027    0.134422   -0.002614
 C        -11.083952   -1.006786   -0.051670
 C        -11.467314   -2.338364   -0.114704
 C        -12.829641   -2.765156   -0.141988
 N        -13.924448   -3.164144   -0.166459
 C        -10.561711   -3.441488   -0.157650
 N         -9.865681   -4.376068   -0.194095
 H         -8.654598   -2.238082   -0.113947
 H        -11.316310    3.495118    0.175756
 F        -13.944046    3.789613    0.168697
 F        -15.371939    1.538308    0.039291
 H        -14.074318   -0.681721   -0.063071
 S         -2.512553    1.882326    0.086068
 S          2.512478   -1.882467   -0.085278
 N         -3.625302   -1.834180   -0.078140
 N          3.625233    1.834020    0.079402
 O          0.355339    2.776999   -0.037038
 O         -0.355451   -2.777154    0.038183
 C         -3.352903   -3.259666   -0.235428
 H         -2.349110   -3.393820   -0.630012
 H         -3.440448   -3.782251    0.723335
 H         -4.077140   -3.680943   -0.937075
 C          3.352843    3.259379    0.237933
 H          3.442384    3.783059   -0.720055
 H          2.348270    3.393205    0.630620
 H          4.075728    3.679744    0.941532
 C          0.338245    3.359954   -1.357930
 H          1.173408    2.984632   -1.959129
 H         -0.606640    3.142609   -1.865339
 H          0.439172    4.436296   -1.212150
 C         -0.337623   -3.360309    1.358977
 H          0.607803   -3.143624    1.865660
 H         -1.172066   -2.984560    1.960907
 H         -0.439325   -4.436574    1.213132
        86
T1: Total Energy = -4462.48413591
 C          7.167982    0.822175    0.026901
 C          6.175877    1.837664    0.076456
 C          4.891950    1.319328    0.037672
 C          4.843033   -0.098517   -0.040124
 C          3.503107   -0.442957   -0.048707
 C          2.733235    0.771832    0.004547
 C          1.333770    0.544091   -0.018718
 C          1.065561   -0.869643   -0.018086
 C         -0.201527   -1.414287    0.029955
 S          6.437548   -0.809384   -0.068488
 H          6.440098    2.886778    0.132760
 C         -7.167987   -0.822246   -0.026783
 C         -6.175875   -1.837733   -0.076218
 C         -4.891952   -1.319386   -0.037387
 C         -4.843051    0.098466    0.040326
 C         -3.503129    0.442919    0.048981
 C         -2.733248   -0.771867   -0.004179
 C         -1.333788   -0.544117    0.019076
 C         -1.065584    0.869616    0.018420
 C          0.201504    1.414260   -0.029614
 S         -6.437572    0.809325    0.068517
 H         -6.440088   -2.886852   -0.132461
 C          8.534145    1.175388    0.051979
 C          9.725337    0.454603    0.018054
 C          9.843144   -1.019713   -0.057406
 O          8.934312   -1.843122   -0.104918
 C         11.288094   -1.335647   -0.065100
 C         11.883206   -2.587880   -0.125281
 C         13.270828   -2.631775   -0.118324
 C         14.018251   -1.450450   -0.052444
 C         13.419625   -0.195988    0.007643
 C         12.021905   -0.137801    0.000831
 C         11.070121    1.003842    0.052026
 C         11.457599    2.342869    0.117805
 C         12.819146    2.764530    0.144378
 N         13.916682    3.159000    0.168315
 C         10.558116    3.447854    0.164664
 N          9.868496    4.388358    0.204719
 H          8.643283    2.251691    0.112211
 H         11.295699   -3.498330   -0.175787
 F         13.923402   -3.801475   -0.174095
 F         15.355281   -1.548502   -0.047979
 H         14.061113    0.673037    0.056741
 C         -8.534148   -1.175458   -0.051907
 C         -9.725325   -0.454646   -0.018094
 C         -9.843078    1.019681    0.057254
 O         -8.934212    1.843056    0.104714
 C        -11.288015    1.335677    0.064724
 C        -11.883082    2.587943    0.124678
 C        -13.270701    2.631893    0.117559
 C        -14.018166    1.450590    0.051749
 C        -13.419584    0.196097   -0.008112
 C        -12.021868    0.137854   -0.001141
 C        -11.070131   -1.003836   -0.052097
 C        -11.457686   -2.342849   -0.117719
 C        -12.819261   -2.764413   -0.144378
 N        -13.916832   -3.158783   -0.168384
 C        -10.558282   -3.447911   -0.164296
 N         -9.868757   -4.388495   -0.204105
 H         -8.643294   -2.251763   -0.112064
 H        -11.295543    3.498374    0.175140
 F        -13.923234    3.801627    0.173108
 F        -15.355191    1.548697    0.047121
 H        -14.061102   -0.672911   -0.057173
 S         -2.523677    1.880514    0.083072
 S          2.523647   -1.880543   -0.082846
 N         -3.607278   -1.841827   -0.073696
 N          3.607283    1.841782    0.074084
 O          0.337327    2.779221   -0.062293
 O         -0.337384   -2.779245    0.062579
 C         -3.341173   -3.264872   -0.264442
 H         -2.322994   -3.396566   -0.620959
 H         -3.474915   -3.814058    0.673706
 H         -4.038935   -3.657246   -1.008882
 C          3.341227    3.264798    0.265119
 H          3.475201    3.814191   -0.672874
 H          2.322982    3.396465    0.621454
 H          4.038854    3.656962    1.009800
 C          0.356710    3.349460   -1.391042
 H          1.204190    2.963692   -1.967240
 H         -0.577571    3.130241   -1.916631
 H          0.459686    4.426078   -1.251710
 C         -0.356720   -3.349554    1.391298
 H          0.577604   -3.130422    1.916848
 H         -1.204144   -2.963768    1.967565
 H         -0.459768   -4.426159    1.251912
        86
S1: Total Energy = -4462.46839379
 C          7.172443    0.820666    0.026888
 C          6.189594    1.832132    0.076942
 C          4.897763    1.312488    0.037583
 C          4.850634   -0.097638   -0.041199
 C          3.501120   -0.441727   -0.050142
 C          2.738600    0.770905    0.004695
 C          1.333636    0.544062   -0.015945
 C          1.065280   -0.866882   -0.016792
 C         -0.204360   -1.413101    0.028531
 S          6.441147   -0.808448   -0.069308
 H          6.453003    2.881540    0.133647
 C         -7.172430   -0.820519   -0.026812
 C         -6.189585   -1.831992   -0.076812
 C         -4.897751   -1.312370   -0.037291
 C         -4.850613    0.097750    0.041564
 C         -3.501097    0.441823    0.050619
 C         -2.738581   -0.770814   -0.004191
 C         -1.333615   -0.543979    0.016515
 C         -1.065256    0.866965    0.017374
 C          0.204383    1.413184   -0.027954
 S         -6.441119    0.808583    0.069521
 H         -6.453002   -2.881394   -0.133599
 C          8.547756    1.173880    0.051630
 C          9.732023    0.456472    0.017128
 C          9.847870   -1.018931   -0.058831
 O          8.937012   -1.840263   -0.106598
 C         11.291492   -1.335437   -0.065635
 C         11.884939   -2.588343   -0.125604
 C         13.272588   -2.634748   -0.117852
 C         14.022053   -1.453842   -0.051357
 C         13.426793   -0.198709    0.008514
 C         12.027284   -0.136321    0.001003
 C         11.084029    1.004895    0.051647
 C         11.470807    2.345088    0.117377
 C         12.831695    2.767042    0.145054
 N         13.930090    3.160367    0.169910
 C         10.570454    3.448414    0.162977
 N          9.877058    4.386883    0.201912
 H          8.654974    2.250611    0.112492
 H         11.295867   -3.497791   -0.176494
 F         13.923680   -3.805533   -0.173351
 F         15.358888   -1.555517   -0.046164
 H         14.069568    0.669378    0.058014
 C         -8.547741   -1.173739   -0.051756
 C         -9.732048   -0.456387   -0.017352
 C         -9.848029    1.018998    0.058764
 O         -8.937255    1.840397    0.106959
 C        -11.291679    1.335379    0.065479
 C        -11.885235    2.588225    0.125627
 C        -13.272885    2.634522    0.117694
 C        -14.022246    1.453570    0.050854
 C        -13.426879    0.198496   -0.009176
 C        -12.027364    0.136215   -0.001481
 C        -11.084000   -1.004911   -0.052176
 C        -11.470600   -2.345142   -0.118135
 C        -12.831421   -2.767295   -0.146086
 N        -13.929737   -3.160823   -0.171177
 C        -10.570071   -3.448326   -0.163681
 N         -9.876467   -4.386643   -0.202576
 H         -8.654930   -2.250469   -0.112733
 H        -11.296241    3.497710    0.176772
 F        -13.924078    3.805245    0.173331
 F        -15.359088    1.555140    0.045493
 H        -14.069580   -0.669629   -0.058929
 S         -2.522960    1.875105    0.083310
 S          2.522988   -1.875014   -0.082770
 N         -3.612871   -1.837318   -0.074657
 N          3.612881    1.837423    0.075035
 O          0.339312    2.776494   -0.058648
 O         -0.339292   -2.776410    0.059214
 C         -3.348135   -3.261764   -0.257203
 H         -2.331799   -3.396547   -0.617672
 H         -3.478541   -3.804478    0.685138
 H         -4.049359   -3.658282   -0.995960
 C          3.348145    3.261859    0.257671
 H          3.478739    3.804654   -0.684597
 H          2.331741    3.396625    0.617956
 H          4.049233    3.658301    0.996601
 C          0.353747    3.353062   -1.385674
 H          1.198781    2.968908   -1.966231
 H         -0.582899    3.136625   -1.907995
 H          0.458006    4.428690   -1.240939
 C         -0.353605   -3.353005    1.386229
 H          0.583111   -3.136627    1.908451
 H         -1.198554   -2.968820    1.966890
 H         -0.457934   -4.428625    1.241484
