       140
S0: Total Energy = -5040.79653154
 C         -9.045529    1.716827   -0.026706
 C         -8.388567    2.953653    0.019677
 C         -5.180757    1.068495    0.018731
 C         -4.794511   -0.270813    0.076477
 C         -3.401747   -0.444871    0.055988
 C         -2.704176    0.748356   -0.008575
 C         -1.277377    0.524402   -0.007827
 C         -1.084919   -0.880792    0.081232
 C          0.194728   -1.413393    0.082521
 S         -7.848681    0.426138   -0.056593
 S         -3.747381    2.121587   -0.050741
 C         -2.437038   -1.630780    0.139163
 H         -8.945289    3.885538    0.045595
 H          0.358844   -2.485380    0.139947
 C          9.045564   -1.716779    0.027424
 C          8.388656   -2.953627   -0.019092
 C          5.180804   -1.068537   -0.020375
 C          4.794552    0.270757   -0.078389
 C          3.401777    0.444793   -0.058356
 C          2.704208   -0.748443    0.006093
 C          1.277408   -0.524502    0.005135
 C          1.084949    0.880690   -0.083949
 C         -0.194699    1.413291   -0.085247
 S          7.848675   -0.426100    0.056115
 S          3.747424   -2.121654    0.048632
 C          2.437069    1.630686   -0.141775
 H          8.945410   -3.885512   -0.044312
 H         -0.358811    2.485281   -0.142637
 C        -10.460325    1.653308   -0.042392
 C        -11.374363    0.617223   -0.082651
 C        -11.042201   -0.824141   -0.129729
 O         -9.925295   -1.333809   -0.142940
 C        -12.325420   -1.559653   -0.160342
 C        -12.522205   -2.932716   -0.206487
 C        -13.835586   -3.408178   -0.228039
 C        -14.907622   -2.508110   -0.203132
 C        -14.703764   -1.124543   -0.156736
 C        -13.390835   -0.640651   -0.135125
 C        -12.833042    0.737714   -0.087145
 C        -13.600658    1.892354   -0.053556
 C        -15.028924    1.893646   -0.062674
 N        -16.192733    1.956448   -0.068249
 C        -13.069916    3.217400   -0.006498
 N        -12.689239    4.318701    0.032249
 H        -10.878989    2.653265   -0.015307
 H        -11.669286   -3.604281   -0.224596
 H        -14.028599   -4.476260   -0.263935
 H        -15.924974   -2.887788   -0.219996
 H        -15.561177   -0.465993   -0.138745
 C         10.460342   -1.653239    0.044552
 C         11.374319   -0.617122    0.085328
 C         11.042090    0.824299    0.130150
 O          9.925162    1.333957    0.141799
 C         12.325269    1.559881    0.160755
 C         12.521991    2.933017    0.204926
 C         13.835345    3.408540    0.226741
 C         14.907418    2.508458    0.204046
 C         14.703624    1.124814    0.159695
 C         13.390722    0.640861    0.137839
 C         12.832992   -0.737595    0.091801
 C         13.600645   -1.892310    0.061877
 C         15.028900   -1.893580    0.072506
 N         16.192702   -1.956368    0.079401
 C         13.069949   -3.217479    0.017907
 N         12.689304   -4.318884   -0.018108
 H         10.879048   -2.653201    0.018303
 H         11.669045    3.604592    0.221330
 H         14.028311    4.476681    0.261115
 H         15.924750    2.888185    0.221055
 H         15.561063    0.466255    0.143366
 C         -2.683883   -2.358431    1.479003
 C         -3.757685   -3.256084    1.594083
 C         -4.059742   -3.863793    2.809957
 C         -3.303291   -3.602893    3.961696
 C         -2.239472   -2.702615    3.845691
 C         -1.933544   -2.088961    2.628546
 H         -4.361205   -3.489547    0.721611
 H         -4.899263   -4.553454    2.864679
 H         -1.635473   -2.472001    4.720477
 H         -1.103254   -1.392039    2.585173
 C         -2.526083   -2.582364   -1.072475
 C         -1.989103   -3.876493   -1.002304
 C         -1.989064   -4.715687   -2.115297
 C         -2.527357   -4.300261   -3.340490
 C         -3.057078   -3.006438   -3.408788
 C         -3.056590   -2.161612   -2.298079
 H         -1.575588   -4.239522   -0.066120
 H         -1.565101   -5.713689   -2.027392
 H         -3.479698   -2.649563   -4.345450
 H         -3.474133   -1.164233   -2.394087
 C          2.525952    2.582388    1.069780
 C          1.989026    3.876525    0.999408
 C          1.988836    4.715818    2.112330
 C          2.526917    4.300483    3.337645
 C          3.056582    3.006644    3.406143
 C          3.056243    2.161722    2.295510
 H          1.575668    4.239484    0.063129
 H          1.564919    5.713826    2.024270
 H          3.479035    2.649836    4.342906
 H          3.473732    1.164335    2.391673
 C          2.684084    2.358205   -1.481657
 C          3.757929    3.255814   -1.596691
 C          4.060140    3.863416   -2.812578
 C          3.303806    3.602450   -3.964380
 C          2.239941    2.702223   -3.848419
 C          1.933857    2.088676   -2.631258
 H          4.361358    3.489330   -0.724170
 H          4.899691    4.553045   -2.867263
 H          1.636027    2.471563   -4.723253
 H          1.103535    1.391792   -2.587920
 C         -3.616118   -4.288105    5.271113
 H         -3.202479   -5.305084    5.296960
 H         -3.192719   -3.741304    6.119733
 C         -2.560102   -5.225542   -4.534123
 H         -2.552613   -4.665694   -5.475164
 H         -1.702784   -5.907140   -4.536186
 C          2.559512    5.225861    4.531206
 H          1.702484    5.907824    4.532814
 H          2.551355    4.666103    5.472297
 C          3.616802    4.287547   -5.273817
 H          3.193421    3.740729   -6.122435
 H          3.203261    5.304563   -5.299765
 H         -4.696791   -4.376609    5.428388
 H         -3.466757   -5.845315   -4.531535
 H          3.466437    5.845239    4.528980
 H          4.697496    4.375939   -5.431012
 C          6.990748   -2.907414   -0.036008
 C          6.524867   -1.578864   -0.005047
 C         -6.990649    2.907410    0.035673
 C         -6.524815    1.578858    0.004142
 H          5.511651    1.081458   -0.141296
 H         -5.511602   -1.081503    0.139617
 C          6.144138   -4.151401   -0.090142
 H          5.511499   -4.256202    0.799402
 H          5.483973   -4.160068   -0.965287
 H          6.782156   -5.037836   -0.146735
 C         -6.143985    4.151370    0.089598
 H         -5.483370    4.159863    0.964405
 H         -5.511801    4.256320   -0.800253
 H         -6.781957    5.037806    0.146683
       140
T1: Total Energy = -5040.75522455
 C         -9.010408   -1.732026    0.035578
 C         -8.347676   -2.980319    0.027414
 C         -5.158059   -1.102183    0.003124
 C         -4.771237    0.261149   -0.008510
 C         -3.398777    0.440029   -0.008471
 C         -2.675411   -0.763875   -0.003285
 C         -1.279130   -0.532710   -0.007028
 C         -1.086055    0.891361   -0.036456
 C          0.180280    1.425336   -0.023235
 S         -7.818207   -0.439144    0.027020
 S         -3.712203   -2.154460    0.005159
 C         -2.442621    1.634348   -0.053254
 H         -8.909274   -3.909234    0.030380
 H          0.342920    2.498777   -0.034222
 C          9.010417    1.732031   -0.035582
 C          8.347683    2.980327   -0.027791
 C          5.158065    1.102195   -0.003521
 C          4.771241   -0.261140    0.008101
 C          3.398783   -0.440019    0.008040
 C          2.675416    0.763886    0.002835
 C          1.279137    0.532721    0.006533
 C          1.086060   -0.891349    0.035959
 C         -0.180274   -1.425325    0.022735
 S          7.818217    0.439149   -0.026849
 S          3.712208    2.154472   -0.005566
 C          2.442625   -1.634338    0.052779
 H          8.909282    3.909240   -0.030928
 H         -0.342913   -2.498765    0.033727
 C        -10.420673   -1.668983    0.050016
 C        -11.337258   -0.623418    0.060937
 C        -11.000445    0.818727    0.055250
 O         -9.880955    1.324189    0.045144
 C        -12.280055    1.560915    0.063881
 C        -12.473199    2.934414    0.061204
 C        -13.786308    3.414520    0.070441
 C        -14.858532    2.516030    0.082044
 C        -14.657325    1.129834    0.085012
 C        -13.346489    0.642511    0.075842
 C        -12.788258   -0.737591    0.076692
 C        -13.561872   -1.896262    0.092720
 C        -14.988371   -1.892478    0.105940
 N        -16.153174   -1.950650    0.116904
 C        -13.037680   -3.222906    0.099924
 N        -12.664709   -4.328353    0.107147
 H        -10.843253   -2.667039    0.052628
 H        -11.618622    3.604220    0.052081
 H        -13.976836    4.483659    0.068571
 H        -15.875556    2.897295    0.088968
 H        -15.516173    0.472900    0.094064
 C         10.420682    1.668980   -0.049882
 C         11.337257    0.623403   -0.060465
 C         11.000425   -0.818735   -0.054134
 O          9.880929   -1.324177   -0.043770
 C         12.280029   -1.560942   -0.062071
 C         12.473158   -2.934441   -0.058529
 C         13.786264   -3.414566   -0.067295
 C         14.858499   -2.516094   -0.079310
 C         14.657307   -1.129898   -0.083154
 C         13.346475   -0.642556   -0.074441
 C         12.788258    0.737551   -0.076224
 C         13.561889    1.896202   -0.093010
 C         14.988390    1.892389   -0.105973
 N         16.153196    1.950536   -0.116761
 C         13.037714    3.222845   -0.101377
 N         12.664764    4.328293   -0.109561
 H         10.843269    2.667033   -0.052701
 H         11.618573   -3.604233   -0.049132
 H         13.976780   -4.483705   -0.064748
 H         15.875519   -2.897375   -0.085867
 H         15.516162   -0.472979   -0.092492
 C         -2.707264    2.407199   -1.364350
 C         -3.784049    3.305949   -1.434622
 C         -4.101442    3.953910   -2.625168
 C         -3.359026    3.732978   -3.794614
 C         -2.293142    2.830733   -3.722993
 C         -1.971649    2.176251   -2.531357
 H         -4.377427    3.508130   -0.547654
 H         -4.942187    4.643773   -2.646050
 H         -1.700435    2.630344   -4.612689
 H         -1.140436    1.479074   -2.523099
 C         -2.526651    2.536207    1.195768
 C         -2.008148    3.839277    1.168010
 C         -2.001677    4.633169    2.313647
 C         -2.514359    4.161585    3.529543
 C         -3.024521    2.858320    3.554913
 C         -3.030036    2.058211    2.411763
 H         -1.615255    4.245181    0.240676
 H         -1.593353    5.639895    2.259013
 H         -3.426464    2.458399    4.483097
 H         -3.432067    1.051899    2.475752
 C          2.526689   -2.536178   -1.196253
 C          2.008139   -3.839229   -1.168553
 C          2.001699   -4.633093   -2.314212
 C          2.514459   -4.161498   -3.530069
 C          3.024665   -2.858248   -3.555382
 C          3.030149   -2.058168   -2.412214
 H          1.615182   -4.245142   -0.241251
 H          1.593338   -5.639806   -2.259622
 H          3.426667   -2.458318   -4.483537
 H          3.432216   -1.051868   -2.476157
 C          2.707228   -2.407202    1.363878
 C          3.784085   -3.305861    1.434214
 C          4.101441   -3.953821    2.624770
 C          3.358916   -3.732977    3.794164
 C          2.292962   -2.830820    3.722480
 C          1.971506   -2.176339    2.530833
 H          4.377550   -3.507971    0.547288
 H          4.942244   -4.643611    2.645702
 H          1.700170   -2.630498    4.612135
 H          1.140235   -1.479230    2.522527
 C         -3.690831    4.460613   -5.075927
 H         -3.309090    5.490046   -5.058620
 H         -3.249771    3.961916   -5.944752
 C         -2.541051    5.038174    4.759347
 H         -2.502367    4.442065    5.677021
 H         -1.698523    5.737738    4.770981
 C          2.541188   -5.038056   -4.759894
 H          1.698740   -5.737715   -4.771502
 H          2.502390   -4.441931   -5.677553
 C          3.690684   -4.460610    5.075487
 H          3.249516   -3.961968    5.944289
 H          3.309032   -5.490075    5.058129
 H         -4.773566    4.522139   -5.232067
 H         -3.460583    5.637230    4.799103
 H          3.460788   -5.637004   -4.799712
 H          4.773413   -4.522048    5.231708
 C          6.960509    2.938613   -0.016232
 C          6.479971    1.601025   -0.013909
 C         -6.960502   -2.938602    0.015696
 C         -6.479967   -1.601016    0.013610
 H          5.497708   -1.065172    0.020119
 H         -5.497703    1.065182   -0.020544
 C          6.114027    4.182164   -0.006482
 H          5.462407    4.239728   -0.886576
 H          5.472256    4.232340    0.881166
 H          6.750894    5.070936   -0.006606
 C         -6.114021   -4.182152    0.005559
 H         -5.472343   -4.232116   -0.882170
 H         -5.462309   -4.239928    0.885569
 H         -6.750888   -5.070924    0.005542
       140
S1: Total Energy = -5040.73903791
 C         -9.015962   -1.732437    0.027223
 C         -8.357737   -2.974372    0.010173
 C         -5.158608   -1.091219    0.006829
 C         -4.775801    0.263979   -0.010235
 C         -3.396346    0.442454   -0.004897
 C         -2.679433   -0.759244    0.010638
 C         -1.278366   -0.530757    0.010189
 C         -1.084642    0.891772   -0.029293
 C          0.183818    1.424802   -0.017471
 S         -7.823982   -0.439773    0.035500
 S         -3.719277   -2.144997    0.022339
 C         -2.440081    1.635377   -0.054817
 H         -8.916256   -3.905111    0.001862
 H          0.347843    2.497822   -0.036879
 C          9.016039    1.732053   -0.042998
 C          8.357898    2.974128   -0.035589
 C          5.158899    1.091289    0.008600
 C          4.776034   -0.263831    0.031202
 C          3.396567   -0.442187    0.032503
 C          2.679703    0.759573    0.017651
 C          1.278628    0.531204    0.021269
 C          1.084887   -0.891297    0.061583
 C         -0.183570   -1.424337    0.049574
 S          7.824161    0.439418   -0.024136
 S          3.719601    2.145196   -0.001542
 C          2.440302   -1.634957    0.086464
 H          8.916392    3.904874   -0.044537
 H         -0.347554   -2.497377    0.068341
 C        -10.433209   -1.666744    0.033261
 C        -11.345622   -0.624691    0.050127
 C        -11.006929    0.818446    0.074861
 O         -9.886442    1.321521    0.082636
 C        -12.285220    1.560802    0.090235
 C        -12.476767    2.934142    0.115199
 C        -13.789399    3.416312    0.125814
 C        -14.862809    2.518564    0.111180
 C        -14.664187    1.132662    0.085948
 C        -13.353236    0.641932    0.075378
 C        -12.800779   -0.735864    0.049723
 C        -13.575003   -1.895779    0.028341
 C        -15.000939   -1.891870    0.030934
 N        -16.166307   -1.948386    0.032106
 C        -13.050776   -3.221341    0.001460
 N        -12.676108   -4.326540   -0.020672
 H        -10.854836   -2.665336    0.021335
 H        -11.621131    3.602638    0.125877
 H        -13.978675    4.485486    0.145307
 H        -15.879356    2.901299    0.119510
 H        -15.523912    0.476860    0.075397
 C         10.433088    1.666292   -0.067122
 C         11.345423    0.624134   -0.080223
 C         11.007072   -0.819167   -0.060768
 O          9.886829   -1.322328   -0.038187
 C         12.285388   -1.561550   -0.072654
 C         12.477259   -2.935012   -0.059508
 C         13.789850   -3.417171   -0.074450
 C         14.862904   -2.519299   -0.102019
 C         14.663951   -1.133284   -0.115652
 C         13.353039   -0.642564   -0.100748
 C         12.800287    0.735325   -0.109644
 C         13.573910    1.895292   -0.144701
 C         14.999632    1.891445   -0.169893
 N         16.164802    1.948038   -0.191049
 C         13.049186    3.220815   -0.162420
 N         12.674055    4.325952   -0.178875
 H         10.854594    2.664952   -0.077183
 H         11.621898   -3.603603   -0.038132
 H         13.979379   -4.486433   -0.064659
 H         15.879425   -2.902028   -0.113225
 H         15.523405   -0.477384   -0.136869
 C         -2.701330    2.398462   -1.372149
 C         -3.775406    3.299746   -1.450556
 C         -4.090103    3.938350   -2.646877
 C         -3.347636    3.705241   -3.813897
 C         -2.284481    2.800272   -3.734039
 C         -1.965863    2.154903   -2.536862
 H         -4.368691    3.511331   -0.565765
 H         -4.928826    4.630380   -2.674207
 H         -1.691959    2.590476   -4.621651
 H         -1.137140    1.454790   -2.522622
 C         -2.525847    2.544647    1.188505
 C         -2.008744    3.848081    1.153975
 C         -2.005203    4.648256    2.295201
 C         -2.519634    4.182863    3.512835
 C         -3.028367    2.879134    3.544804
 C         -3.030688    2.072556    2.406275
 H         -1.615014    4.249358    0.224976
 H         -1.598025    5.655137    2.235721
 H         -3.431618    2.484088    4.474467
 H         -3.431302    1.065944    2.475191
 C          2.524192   -2.547022   -1.154902
 C          2.008832   -3.851009   -1.116200
 C          2.003492   -4.653735   -2.255660
 C          2.514315   -4.190425   -3.475576
 C          3.021273   -2.886086   -3.511718
 C          3.025373   -2.076990   -2.375012
 H          1.617870   -4.250728   -0.185365
 H          1.597749   -5.660997   -2.192929
 H          3.421676   -2.492576   -4.443265
 H          3.424460   -1.069999   -2.447182
 C          2.703478   -2.395075    1.405161
 C          3.778604   -3.295045    1.484417
 C          4.094964   -3.931017    2.681684
 C          3.353174   -3.696491    3.848864
 C          2.288930   -2.792900    3.768120
 C          1.968627   -2.150166    2.569962
 H          4.371366   -3.507738    0.599537
 H          4.934471   -4.622070    2.709654
 H          1.696846   -2.582111    4.655789
 H          1.139051   -1.451079    2.555035
 C         -3.676280    4.422920   -5.101541
 H         -3.285762    5.449181   -5.095053
 H         -3.241325    3.912095   -5.966376
 C         -2.549690    5.066430    4.737479
 H         -2.510355    4.475792    5.658637
 H         -1.709113    5.768344    4.745731
 C          2.542546   -5.076654   -4.698336
 H          1.704480   -5.781592   -4.701565
 H          2.497327   -4.488264   -5.620671
 C          3.683703   -4.411301    5.137622
 H          3.248059   -3.899838    6.001733
 H          3.295229   -5.438346    5.133045
 H         -4.758782    4.492041   -5.255779
 H         -3.470926    5.663115    4.772737
 H          3.465798   -5.670066   -4.736040
 H          4.766400   -4.478013    5.291584
 C          6.962796    2.929535   -0.016956
 C          6.490466    1.598139   -0.008638
 C         -6.962519   -2.929642    0.003244
 C         -6.490216   -1.598268    0.013264
 H          5.500617   -1.069380    0.049454
 H         -5.500325    1.069508   -0.031518
 C          6.117899    4.174598   -0.006734
 H          5.465291    4.233880   -0.886152
 H          5.477300    4.227418    0.881718
 H          6.756047    5.062478   -0.008275
 C         -6.117498   -4.174517   -0.016068
 H         -5.470184   -4.216207   -0.900227
 H         -5.471549   -4.244839    0.867444
 H         -6.755581   -5.062331   -0.030390
