       140
S0: Total Energy = -4262.75955390
 C         -9.145743   -1.714381    0.017200
 C         -8.546149   -2.979844   -0.040123
 C         -5.257081   -1.242212   -0.037329
 C         -4.816871    0.071654   -0.116425
 C         -3.420892    0.258651   -0.085048
 C         -2.660911   -0.888637    0.011989
 C         -1.250168   -0.590239    0.014469
 C         -1.127943    0.820847   -0.107905
 C          0.121946    1.419049   -0.118576
 S         -7.892636   -0.480232    0.054385
 C         -2.516303    1.493689   -0.186442
 H         -9.144516   -3.885246   -0.071797
 H          0.229105    2.496323   -0.204312
 C          9.145742    1.714339   -0.017425
 C          8.546149    2.979818    0.039588
 C          5.257078    1.242191    0.037344
 C          4.816860   -0.071669    0.116500
 C          3.420877   -0.258656    0.085249
 C          2.660897    0.888638   -0.011748
 C          1.250154    0.590245   -0.014189
 C          1.127928   -0.820841    0.108186
 C         -0.121961   -1.419042    0.118862
 S          7.892633    0.480179   -0.054171
 C          2.516286   -1.493688    0.186694
 H          9.144517    3.885230    0.070949
 H         -0.229119   -2.496316    0.204593
 C        -10.556965   -1.588401    0.039209
 C        -11.423961   -0.513048    0.090111
 C        -11.027584    0.912094    0.142409
 O         -9.888645    1.370946    0.154512
 C        -12.276796    1.703955    0.179724
 C        -12.412055    3.084554    0.231437
 C        -13.703211    3.618038    0.258925
 C        -14.814639    2.766470    0.234305
 C        -14.672786    1.375035    0.182429
 C        -13.382444    0.833202    0.154756
 C        -12.886774   -0.568395    0.100540
 C        -13.705043   -1.687981    0.068135
 C        -15.131952   -1.625395    0.082365
 N        -16.297350   -1.635711    0.091835
 C        -13.233165   -3.035047    0.018095
 N        -12.900928   -4.151808   -0.022603
 H        -11.019720   -2.568619    0.007357
 H        -11.530053    3.717377    0.249242
 H        -13.848415    4.693490    0.299313
 H        -15.814009    3.190996    0.255829
 H        -15.558794    0.755484    0.164931
 C         10.556961    1.588365   -0.039592
 C         11.423975    0.513015   -0.090326
 C         11.027642   -0.912165   -0.141930
 O          9.888719   -1.371065   -0.153741
 C         12.276877   -1.703999   -0.179050
 C         12.412177   -3.084616   -0.230149
 C         13.703347   -3.618070   -0.257531
 C         14.814749   -2.766454   -0.233420
 C         14.672856   -1.375000   -0.182176
 C         13.382499   -0.833196   -0.154613
 C         12.886783    0.568411   -0.101045
 C         13.705000    1.688058   -0.069480
 C         15.131910    1.625546   -0.083860
 N         16.297307    1.635942   -0.093469
 C         13.233049    3.035130   -0.020305
 N         12.900736    4.151898    0.019579
 H         11.019709    2.568598   -0.008067
 H         11.530194   -3.717476   -0.247568
 H         13.848583   -4.693536   -0.297441
 H         15.814131   -3.190957   -0.254851
 H         15.558845   -0.755413   -0.165059
 C         -2.793566    2.182989   -1.540180
 C         -3.893559    3.046164   -1.672573
 C         -4.219564    3.612462   -2.902881
 C         -3.461847    3.342935   -4.051845
 C         -2.371270    2.476826   -3.918488
 C         -2.041405    1.905024   -2.687341
 H         -4.498670    3.286289   -0.803148
 H         -5.078953    4.275949   -2.970730
 H         -1.765512    2.240653   -4.790545
 H         -1.190966    1.233814   -2.630130
 C         -2.662228    2.458725    1.009201
 C         -2.185448    3.775874    0.922964
 C         -2.234774    4.631592    2.022371
 C         -2.764179    4.210299    3.249959
 C         -3.233332    2.894131    3.334609
 C         -3.183390    2.032696    2.237232
 H         -1.780434    4.143281   -0.015211
 H         -1.857042    5.646864    1.922148
 H         -3.646869    2.532400    4.273422
 H         -3.553888    1.018317    2.346040
 C          2.662176   -2.458750   -1.008930
 C          2.185429   -3.775908   -0.922641
 C          2.234723   -4.631649   -2.022032
 C          2.764064   -4.210372   -3.249653
 C          3.233184   -2.894195   -3.334354
 C          3.183272   -2.032737   -2.236994
 H          1.780464   -4.143302    0.015559
 H          1.857018   -5.646927   -1.921770
 H          3.646671   -2.532476   -4.273194
 H          3.553743   -1.018352   -2.345842
 C          2.793587   -2.182958    1.540441
 C          3.893579   -3.046135    1.672817
 C          4.219620   -3.612411    2.903125
 C          3.461939   -3.342859    4.052108
 C          2.371361   -2.476749    3.918767
 C          2.041461   -1.904970    2.687619
 H          4.498662   -3.286283    0.803378
 H          5.079008   -4.275901    2.970961
 H          1.765630   -2.240558    4.790838
 H          1.191021   -1.233759    2.630422
 C         -3.800979    3.983917   -5.377318
 H         -3.412597    5.009639   -5.434353
 H         -3.370204    3.424352   -6.213956
 C         -2.850180    5.152028    4.428295
 H         -2.849929    4.606437    5.377712
 H         -2.011625    5.856758    4.439852
 C          2.850033   -5.152124   -4.427973
 H          2.011496   -5.856877   -4.439473
 H          2.849722   -4.606554   -5.377401
 C          3.801110   -3.983815    5.377583
 H          3.370347   -3.424244    6.214223
 H          3.412744   -5.009542    5.434643
 H         -4.884681    4.041546   -5.528441
 H         -3.772710    5.747091    4.394717
 H          3.772580   -5.747163   -4.394426
 H          4.884816   -4.041428    5.528681
 C          7.147596    2.996674    0.058920
 C          6.619365    1.691025    0.020782
 C         -7.147594   -2.996695   -0.059387
 C         -6.619368   -1.691056   -0.020879
 H          5.516931   -0.895905    0.208087
 H         -5.516942    0.895881   -0.208087
 C          6.360447    4.278504    0.123013
 H          5.745041    4.428204   -0.772759
 H          5.694387    4.308992    0.993378
 H          7.038913    5.133109    0.197619
 C         -6.360440   -4.278505   -0.123804
 H         -5.694272   -4.308707   -0.994096
 H         -5.745143   -4.428498    0.771995
 H         -7.038898   -5.133084   -0.198767
Se         -3.721967   -2.456827    0.079750
Se          3.721960    2.456817   -0.079622
       140
T1: Total Energy = -4262.72049007
 C          9.109768    1.727602    0.043600
 C          8.504016    3.004870    0.044982
 C          5.235066    1.272422    0.011562
 C          4.791842   -0.068545   -0.009891
 C          3.418904   -0.258198   -0.006556
 C          2.630324    0.902973    0.009942
 C          1.252296    0.599302    0.003738
 C          1.130046   -0.834053   -0.039001
 C         -0.105749   -1.432832   -0.037511
 S          7.861983    0.490047    0.026932
 C          2.522490   -1.502127   -0.054394
 H          9.106825    3.907476    0.054057
 H         -0.210065   -2.513410   -0.061164
 C         -9.109771   -1.727606   -0.043797
 C         -8.504021   -3.004875   -0.045152
 C         -5.235072   -1.272433   -0.011284
 C         -4.791847    0.068533    0.010232
 C         -3.418909    0.258183    0.007013
 C         -2.630329   -0.902990   -0.009446
 C         -1.252301   -0.599322   -0.003199
 C         -1.130051    0.834033    0.039546
 C          0.105744    1.432812    0.038064
 S         -7.861986   -0.490053   -0.026891
 C         -2.522494    1.502109    0.054911
 H         -9.106830   -3.907480   -0.054351
 H          0.210060    2.513389    0.061721
 C         10.516125    1.603128    0.056720
 C         11.386432    0.518838    0.059375
 C         10.987430   -0.907074    0.042797
 O          9.846845   -1.363556    0.028790
 C         12.234100   -1.703935    0.045802
 C         12.367643   -3.084803    0.032804
 C         13.659043   -3.621312    0.038282
 C         14.769590   -2.770073    0.056440
 C         14.628561   -1.376270    0.069825
 C         13.339648   -0.832712    0.064539
 C         12.841678    0.570313    0.075766
 C         13.664397    1.693953    0.100258
 C         15.089600    1.628055    0.114038
 N         16.255710    1.635419    0.126029
 C         13.197210    3.041897    0.116553
 N         12.871233    4.161906    0.131281
 H         10.981752    2.581869    0.066638
 H         11.484944   -3.716916    0.018818
 H         13.803189   -4.697634    0.028403
 H         15.769109   -3.195095    0.060358
 H         15.515107   -0.757319    0.083633
 C        -10.516124   -1.603127   -0.057171
 C        -11.386423   -0.518831   -0.059919
 C        -10.987410    0.907075   -0.043069
 O         -9.846822    1.363541   -0.028712
 C        -12.234070    1.703950   -0.046273
 C        -12.367601    3.084817   -0.033122
 C        -13.658994    3.621341   -0.038856
 C        -14.769545    2.770117   -0.057414
 C        -14.628528    1.376314   -0.070948
 C        -13.339622    0.832742   -0.065404
 C        -12.841667   -0.570288   -0.076678
 C        -13.664400   -1.693910   -0.101514
 C        -15.089598   -1.627978   -0.115659
 N        -16.255706   -1.635304   -0.127954
 C        -13.197241   -3.041863   -0.117854
 N        -12.871298   -4.161880   -0.132645
 H        -10.981753   -2.581864   -0.067252
 H        -11.484899    3.716919   -0.018827
 H        -13.803132    4.697663   -0.028869
 H        -15.769059    3.195150   -0.061533
 H        -15.515077    0.757374   -0.085064
 C          2.828671   -2.260711   -1.364165
 C          3.929595   -3.130639   -1.426823
 C          4.281058   -3.759103   -2.618968
 C          3.549993   -3.546668   -3.797178
 C          2.459525   -2.672805   -3.733154
 C          2.104017   -2.038230   -2.540464
 H          4.515277   -3.326239   -0.533416
 H          5.139849   -4.426505   -2.633642
 H          1.874822   -2.479565   -4.629670
 H          1.254936   -1.362811   -2.537873
 C          2.650077   -2.395741    1.197284
 C          2.188631   -3.720699    1.174449
 C          2.218766   -4.511012    2.322472
 C          2.712160   -4.013658    3.536488
 C          3.164762   -2.689003    3.557290
 C          3.133704   -1.892560    2.411485
 H          1.811686   -4.146127    0.249271
 H          1.854672   -5.534753    2.271532
 H          3.549754   -2.268904    4.483735
 H          3.490862   -0.869420    2.472137
 C         -2.650045    2.395760   -1.196745
 C         -2.188628    3.720727   -1.173851
 C         -2.218729    4.511073   -2.321852
 C         -2.712058    4.013745   -3.535904
 C         -3.164630    2.689080   -3.556766
 C         -3.133605    1.892603   -2.410983
 H         -1.811733    4.146136   -0.248643
 H         -1.854659    5.534821   -2.270865
 H         -3.549571    2.268999   -4.483240
 H         -3.490737    0.869457   -2.471682
 C         -2.828715    2.260656    1.364695
 C         -3.929651    3.130569    1.427346
 C         -4.281148    3.759003    2.619497
 C         -3.550107    3.546551    3.797719
 C         -2.459627    2.672703    3.733701
 C         -2.104084    2.038160    2.541004
 H         -4.515313    3.326184    0.533929
 H         -5.139947    4.426395    2.634166
 H         -1.874940    2.479452    4.630225
 H         -1.254993    1.362752    2.538417
 C          3.918895   -4.253497   -5.080315
 H          3.560040   -5.291373   -5.079629
 H          3.480750   -3.755759   -5.951309
 C          2.778714   -4.884794    4.768974
 H          2.714109   -4.288307    5.685044
 H          1.968069   -5.621165    4.783260
 C         -2.778577    4.884916   -4.768367
 H         -1.967954    5.621312   -4.782590
 H         -2.713908    4.288459   -5.684452
 C         -3.919047    4.253347    5.080864
 H         -3.480912    3.755598    5.951856
 H         -3.560212    5.291229    5.080206
 H          5.005194   -4.289173   -5.219275
 H          3.724131   -5.442194    4.809690
 H         -3.724009    5.442289   -4.809113
 H         -5.005351    4.289001    5.219802
 C         -7.116876   -3.025660   -0.034367
 C         -6.573444   -1.710597   -0.023087
 C          7.116870    3.025653    0.034376
 C          6.573438    1.710588    0.023218
 H         -5.501615    0.888548    0.032831
 H          5.501609   -0.888560   -0.032536
 C         -6.328591   -4.306657   -0.034043
 H         -5.684231   -4.391016   -0.917779
 H         -5.690608   -4.394398    0.853824
 H         -7.005185   -5.165684   -0.038454
 C          6.328583    4.306649    0.034113
 H          5.690505    4.394374   -0.853688
 H          5.684316    4.391020    0.917916
 H          7.005175    5.165677    0.038438
Se          3.685623    2.487756    0.027354
Se         -3.685630   -2.487770   -0.026971
       140
S1: Total Energy = -4262.70362953
 C          9.117380    1.727862    0.035497
 C          8.515202    2.998892    0.030993
 C          5.237035    1.260839    0.000860
 C          4.798249   -0.070858   -0.022409
 C          3.416619   -0.259606   -0.015915
 C          2.636429    0.898792    0.005394
 C          1.251376    0.597354    0.002448
 C          1.128901   -0.833451   -0.044650
 C         -0.109808   -1.431828   -0.042198
 S          7.869947    0.490117    0.022374
 C          2.520195   -1.502210   -0.064944
 H          9.114784    3.903649    0.037172
 H         -0.215108   -2.512126   -0.069829
 C         -9.117387   -1.727831   -0.035649
 C         -8.515214   -2.998863   -0.031026
 C         -5.237044   -1.260821   -0.000543
 C         -4.798256    0.070874    0.022767
 C         -3.416625    0.259619    0.016374
 C         -2.636437   -0.898781   -0.004877
 C         -1.251383   -0.597344   -0.001894
 C         -1.128907    0.833461    0.045193
 C          0.109802    1.431836    0.042762
 S         -7.869951   -0.490090   -0.022423
 C         -2.520202    1.502222    0.065436
 H         -9.114797   -3.903619   -0.037249
 H          0.215103    2.512135    0.070399
 C         10.530023    1.600900    0.052053
 C         11.396950    0.519933    0.060095
 C         10.996471   -0.907296    0.045470
 O          9.855169   -1.361654    0.030057
 C         12.241979   -1.704224    0.052372
 C         12.374464   -3.085022    0.041804
 C         13.665524   -3.623196    0.050952
 C         14.776684   -2.772220    0.070306
 C         14.637549   -1.378489    0.081266
 C         13.348633   -0.832122    0.072206
 C         12.855297    0.568682    0.080217
 C         13.678449    1.694056    0.105691
 C         15.102948    1.628189    0.122744
 N         16.269482    1.634326    0.137091
 C         13.211133    3.041138    0.119956
 N         12.883786    4.161291    0.133017
 H         10.994661    2.580307    0.059860
 H         11.491089   -3.716245    0.026880
 H         13.808851   -4.699633    0.043008
 H         15.775832   -3.198282    0.077106
 H         15.524624   -0.760271    0.096132
 C        -10.530029   -1.600868   -0.052422
 C        -11.396962   -0.519908   -0.060654
 C        -10.996517    0.907330   -0.045973
 O         -9.855230    1.361714   -0.030254
 C        -12.242043    1.704228   -0.053097
 C        -12.374558    3.085023   -0.042532
 C        -13.665625    3.623173   -0.051934
 C        -14.776764    2.772175   -0.071523
 C        -14.637600    1.378446   -0.082474
 C        -13.348675    0.832101   -0.073166
 C        -12.855298   -0.568693   -0.081082
 C        -13.678375   -1.694118   -0.106731
 C        -15.102877   -1.628372   -0.124079
 N        -16.269407   -1.634665   -0.138669
 C        -13.210941   -3.041160   -0.120885
 N        -12.883437   -4.161267   -0.133882
 H        -10.994667   -2.580276   -0.060274
 H        -11.491198    3.716264   -0.027424
 H        -13.808975    4.699607   -0.044005
 H        -15.775919    3.198218   -0.078516
 H        -15.524662    0.760217   -0.097519
 C          2.823899   -2.256262   -1.377731
 C          3.922666   -3.128591   -1.444428
 C          4.271911   -3.752763   -2.639489
 C          3.540742   -3.533509   -3.816369
 C          2.452510   -2.656953   -3.748241
 C          2.099396   -2.026416   -2.552896
 H          4.508270   -3.329475   -0.552176
 H          5.129075   -4.422109   -2.657501
 H          1.867989   -2.458395   -4.643678
 H          1.252464   -1.348243   -2.547399
 C          2.649024   -2.398182    1.184735
 C          2.189417   -3.723705    1.160133
 C          2.221997   -4.515497    2.307041
 C          2.716263   -4.019168    3.521208
 C          3.167060   -2.693865    3.543582
 C          3.133232   -1.895753    2.399106
 H          1.812273   -4.148401    0.234695
 H          1.859326   -5.539663    2.255146
 H          3.552676   -2.274694    4.470146
 H          3.488465   -0.871943    2.460839
 C         -2.648988    2.398208   -1.184238
 C         -2.189502    3.723771   -1.159561
 C         -2.222044    4.515588   -2.306453
 C         -2.716149    4.019244   -3.520679
 C         -3.166826    2.693902   -3.543127
 C         -3.133037    1.895766   -2.398667
 H         -1.812486    4.148479   -0.234076
 H         -1.859470    5.539786   -2.254498
 H         -3.552318    2.274719   -4.469738
 H         -3.488173    0.871926   -2.460460
 C         -2.823947    2.256260    1.378220
 C         -3.922793    3.128489    1.444936
 C         -4.272066    3.752638    2.640001
 C         -3.540846    3.533462    3.816864
 C         -2.452536    2.657005    3.748717
 C         -2.099395    2.026489    2.553370
 H         -4.508438    3.329310    0.552698
 H         -5.129291    4.421905    2.658029
 H         -1.867974    2.458508    4.644141
 H         -1.252400    1.348394    2.547855
 C          3.906949   -4.235930   -5.102603
 H          3.539984   -5.270952   -5.108268
 H          3.474428   -3.730096   -5.971727
 C          2.785639   -4.892062    4.752219
 H          2.719534   -4.297283    5.669273
 H          1.977295   -5.630940    4.765408
 C         -2.785487    4.892162   -4.751674
 H         -1.977226    5.631133   -4.764754
 H         -2.719212    4.297415   -5.668736
 C         -3.907085    4.235861    5.103101
 H         -3.474491    3.730078    5.972219
 H         -3.540222    5.270919    5.108745
 H          4.993200   -4.279264   -5.239373
 H          3.732817   -5.446524    4.791630
 H         -3.732725    5.446516   -4.791177
 H         -4.993337    4.279090    5.239902
 C         -7.120236   -3.016500   -0.018425
 C         -6.585512   -1.707017   -0.012014
 C          7.120222    3.016524    0.018565
 C          6.585502    1.707040    0.012187
 H         -5.505419    0.892985    0.048986
 H          5.505411   -0.892966   -0.048694
 C         -6.333272   -4.298725   -0.011947
 H         -5.691537   -4.390760   -0.897031
 H         -5.692968   -4.382833    0.874720
 H         -7.010876   -5.156980   -0.009170
 C          6.333253    4.298746    0.012241
 H          5.692842    4.382895   -0.874344
 H          5.691626    4.390737    0.897407
 H          7.010854    5.157005    0.009421
Se          3.694897    2.478260    0.023218
Se         -3.694908   -2.478246   -0.022749
