       142
S0: Total Energy = -5588.12398893
 C          9.006238   -1.903200   -0.030720
 C          8.288358   -3.111831   -0.023391
 C          5.169268   -1.081455   -0.009556
 C          4.792146    0.263763   -0.003081
 C          3.401554    0.439761   -0.007083
 C          2.701782   -0.756767   -0.008546
 C          1.277155   -0.527152    0.000285
 C          1.086875    0.881670    0.029276
 C         -0.191284    1.416426    0.023676
 S          7.887960   -0.537337   -0.027017
 S          3.737253   -2.138383   -0.009782
 C          2.440632    1.630525    0.034985
 H          8.795132   -4.068974   -0.024290
 H         -0.353541    2.490162    0.035962
 C         -9.006259    1.903187    0.030806
 C         -8.288381    3.111820    0.023428
 C         -5.169290    1.081445    0.009506
 C         -4.792167   -0.263773    0.002988
 C         -3.401575   -0.439770    0.006973
 C         -2.701805    0.756759    0.008468
 C         -1.277177    0.527147   -0.000368
 C         -1.086895   -0.881672   -0.029377
 C          0.191262   -1.416430   -0.023759
 S         -7.887981    0.537326    0.027041
 S         -3.737275    2.138374    0.009752
 C         -2.440649   -1.630531   -0.035147
 H         -8.795156    4.068962    0.024344
 H          0.353515   -2.490168   -0.036038
 C         10.418374   -1.910768   -0.042653
 C         11.387730   -0.919946   -0.051366
 C         11.130214    0.533364   -0.041027
 O         10.043470    1.104963   -0.031879
 C         12.450580    1.202604   -0.042666
 C         12.709886    2.566608   -0.032593
 C         14.040698    2.958450   -0.035987
 C         15.065215    2.003326   -0.049378
 C         14.803576    0.638414   -0.059900
 C         13.464995    0.229790   -0.056312
 C         12.834527   -1.117714   -0.065731
 C         13.544889   -2.309704   -0.088517
 C         14.970905   -2.376157   -0.098939
 N         16.131581   -2.483038   -0.107838
 C         12.948984   -3.606847   -0.106999
 N         12.512585   -4.687901   -0.123547
 H         10.788096   -2.930051   -0.044685
 H         11.911017    3.300296   -0.022393
 H         15.644097   -0.041689   -0.069841
 C        -10.418393    1.910750    0.042802
 C        -11.387740    0.919921    0.051552
 C        -11.130215   -0.533386    0.041195
 O        -10.043466   -1.104975    0.031955
 C        -12.450577   -1.202635    0.042952
 C        -12.709874   -2.566641    0.032935
 C        -14.040683   -2.958492    0.036430
 C        -15.065205   -2.003374    0.049865
 C        -14.803575   -0.638460    0.060330
 C        -13.464997   -0.229826    0.056641
 C        -12.834534    1.117683    0.065971
 C        -13.544887    2.309678    0.088706
 C        -14.970902    2.376154    0.099194
 N        -16.131575    2.483064    0.108151
 C        -12.948963    3.606816    0.107030
 N        -12.512527    4.687857    0.123458
 H        -10.788124    2.930031    0.044847
 H        -11.911001   -3.300323    0.022697
 H        -15.644101    0.041635    0.070309
 C          2.706524    2.418260    1.336598
 C          3.783450    3.317746    1.396460
 C          4.102317    3.980211    2.578940
 C          3.360461    3.774182    3.751317
 C          2.293800    2.871931    3.690668
 C          1.970954    2.203631    2.506948
 H          4.376168    3.508983    0.506480
 H          4.943418    4.670079    2.590959
 H          1.700840    2.683171    4.582861
 H          1.138890    1.507486    2.506451
 C          2.514610    2.525240   -1.220315
 C          1.981931    3.822927   -1.202439
 C          1.968118    4.609982   -2.352871
 C          2.487694    4.136790   -3.565172
 C          3.012734    2.839298   -3.581246
 C          3.025991    2.046564   -2.432799
 H          1.582149    4.229764   -0.278411
 H          1.547735    5.612198   -2.305105
 H          3.420291    2.438045   -4.506554
 H          3.438730    1.044160   -2.488733
 C         -2.514649   -2.525325    1.220091
 C         -1.982112   -3.823050    1.202130
 C         -1.968326   -4.610167    2.352543
 C         -2.487780   -4.136982    3.564877
 C         -3.012672   -2.839411    3.581043
 C         -3.025907   -2.046639    2.432644
 H         -1.582411   -4.229894    0.278071
 H         -1.548056   -5.612425    2.304710
 H         -3.420116   -2.438146    4.506398
 H         -3.438523   -1.044187    2.488637
 C         -2.706509   -2.418169   -1.336831
 C         -3.783414   -3.317641   -1.396811
 C         -4.102252   -3.979993   -2.579386
 C         -3.360368   -3.773864   -3.751701
 C         -2.293723   -2.871568   -3.690946
 C         -1.970916   -2.203400   -2.507167
 H         -4.376181   -3.508951   -0.506880
 H         -4.943367   -4.669839   -2.591510
 H         -1.700772   -2.682670   -4.583118
 H         -1.138888   -1.507213   -2.506584
 C          3.692363    4.517878    5.023605
 H          3.304239    5.544799    4.997174
 H          3.257353    4.025866    5.899365
 C          2.505586    5.005790   -4.800729
 H          2.483634    4.402893   -5.714560
 H          1.649830    5.689008   -4.822280
 C         -2.505784   -5.005987    4.800429
 H         -1.652161   -5.691906    4.820121
 H         -2.479984   -4.403209    5.714251
 C         -3.691966   -4.517594   -5.024047
 H         -3.261604   -4.022420   -5.900336
 H         -3.298666   -5.542613   -4.999929
 H          4.775250    4.587821    5.175506
 H          3.413526    5.622474   -4.839584
 H         -3.415623   -5.619740    4.841226
 H         -4.774869   -4.592661   -5.173208
 C         -6.902087    2.952689    0.015613
 C         -6.499262    1.601748    0.016412
 C          6.902064   -2.952700   -0.015622
 C          6.499240   -1.601760   -0.016431
 H         -5.515463   -1.071636   -0.007056
 H          5.515441    1.071627    0.006943
 O         -5.959821    3.922957    0.008285
 O          5.959798   -3.922968   -0.008314
 C         -6.406563    5.281702    0.003459
 H         -7.002261    5.492917   -0.891775
 H         -6.994344    5.502112    0.901734
 H         -5.503129    5.891314   -0.003677
 C          6.406538   -5.281713   -0.003466
 H          6.994340   -5.502131   -0.901725
 H          7.002214   -5.492922    0.891784
 H          5.503103   -5.891324    0.003653
 F        -16.332952   -2.438074    0.052426
 F        -14.376523   -4.255023    0.027041
 F         16.332965    2.438017   -0.051843
 F         14.376547    4.254978   -0.026543
       142
T1: Total Energy = -5588.08886570
 C          8.976008    1.913563    0.032283
 C          8.256359    3.129000    0.028308
 C          5.148627    1.105983    0.003574
 C          4.770007   -0.259328   -0.005880
 C          3.397547   -0.438636   -0.006238
 C          2.676136    0.766943   -0.003635
 C          1.279263    0.532649   -0.007676
 C          1.085994   -0.890674   -0.034595
 C         -0.180675   -1.424897   -0.021650
 S          7.862675    0.541864    0.021763
 S          3.708181    2.162422    0.002920
 C          2.442412   -1.633468   -0.048290
 H          8.766296    4.083967    0.033283
 H         -0.343515   -2.498310   -0.031073
 C         -8.976006   -1.913556   -0.031852
 C         -8.256344   -3.128985   -0.028113
 C         -5.148619   -1.105939   -0.004943
 C         -4.770003    0.259375    0.004360
 C         -3.397544    0.438688    0.004398
 C         -2.676129   -0.766888    0.001671
 C         -1.279256   -0.532590    0.005548
 C         -1.085987    0.890732    0.032466
 C          0.180681    1.424957    0.019493
 S         -7.862680   -0.541844   -0.022129
 S         -3.708169   -2.162372   -0.004642
 C         -2.442406    1.633524    0.046293
 H         -8.766275   -4.083957   -0.032682
 H          0.343519    2.498370    0.028949
 C         10.386882    1.920980    0.044870
 C         11.358112    0.923207    0.051770
 C         11.097923   -0.532101    0.042296
 O         10.009802   -1.101382    0.031007
 C         12.415931   -1.205138    0.048799
 C         12.673659   -2.568667    0.042625
 C         14.004909   -2.962744    0.050933
 C         15.028130   -2.008407    0.065193
 C         14.767447   -0.641791    0.071578
 C         13.430174   -0.231485    0.063050
 C         12.798499    1.115810    0.066713
 C         13.513463    2.312773    0.083616
 C         14.937840    2.375965    0.095654
 N         16.099646    2.479556    0.105734
 C         12.923032    3.610590    0.092319
 N         12.493647    4.695489    0.100537
 H         10.759839    2.938425    0.050005
 H         11.874135   -3.301702    0.031748
 H         15.608612    0.037523    0.082600
 C        -10.386887   -1.920989   -0.043495
 C        -11.358134   -0.923230   -0.049968
 C        -11.097953    0.532083   -0.041358
 O        -10.009829    1.101380   -0.031108
 C        -12.415972    1.205104   -0.047267
 C        -12.673709    2.568634   -0.041597
 C        -14.004969    2.962694   -0.049140
 C        -15.028190    2.008340   -0.062153
 C        -14.767498    0.641723   -0.068030
 C        -13.430215    0.231434   -0.060290
 C        -12.798530   -1.115857   -0.063710
 C        -13.513495   -2.312837   -0.079364
 C        -14.937880   -2.376044   -0.090383
 N        -16.099692   -2.479644   -0.099618
 C        -12.923063   -3.610657   -0.087616
 N        -12.493677   -4.695559   -0.095401
 H        -10.759837   -2.938439   -0.048133
 H        -11.874185    3.301682   -0.031666
 H        -15.608665   -0.037606   -0.078083
 C          2.708173   -2.410658   -1.356584
 C          3.784532   -3.310190   -1.423039
 C          4.102860   -3.962181   -2.611266
 C          3.361779   -3.744560   -3.782183
 C          2.296363   -2.841324   -3.714489
 C          1.973976   -2.182979   -2.525206
 H          4.376923   -3.509834   -0.534838
 H          4.943093   -4.652781   -2.629073
 H          1.704651   -2.643349   -4.605386
 H          1.143090   -1.485390   -2.520029
 C          2.525702   -2.531453    1.203698
 C          2.005999   -3.834195    1.180181
 C          1.999029   -4.624600    2.328238
 C          2.512310   -4.149700    3.542671
 C          3.023522   -2.846762    3.563907
 C          3.029631   -2.050167    2.418190
 H          1.612055   -4.242479    0.254351
 H          1.589573   -5.631034    2.276783
 H          3.425650   -2.444184    4.490866
 H          3.432243   -1.043913    2.479114
 C         -2.525841    2.531458   -1.205721
 C         -2.006166    3.834199   -1.182331
 C         -1.999338    4.624548   -2.330445
 C         -2.512730    4.149577   -3.544785
 C         -3.023911    2.846608   -3.565901
 C         -3.029885    2.050087   -2.420149
 H         -1.612126    4.242546   -0.256571
 H         -1.589902    5.630992   -2.279088
 H         -3.426111    2.443962   -4.492801
 H         -3.432472    1.043818   -2.480970
 C         -2.708007    2.410753    1.354597
 C         -3.784325    3.310302    1.421172
 C         -4.102508    3.962305    2.609450
 C         -3.361301    3.744684    3.780267
 C         -2.295924    2.841382    3.712464
 C         -1.973693    2.183039    2.523158
 H         -4.376831    3.509943    0.533048
 H         -4.942735    4.652907    2.627360
 H         -1.704143    2.643358    4.603306
 H         -1.142852    1.485397    2.517894
 C          3.693957   -4.476813   -5.060797
 H          3.305168   -5.503608   -5.043103
 H          3.259634   -3.976874   -5.932308
 C          2.538085   -5.022527    4.775193
 H          2.507962   -4.423149    5.691027
 H          1.690462   -5.715813    4.792776
 C         -2.538721    5.022290   -4.777383
 H         -1.692917    5.717814   -4.793553
 H         -2.505460    4.422960   -5.693150
 C         -3.693110    4.477069    5.058900
 H         -3.262280    3.974758    5.930792
 H         -3.300326    5.502379    5.042851
 H          4.776855   -4.546030   -5.212361
 H          3.453237   -5.628403    4.812722
 H         -3.455441    5.625691   -4.816521
 H         -4.776002    4.550275    5.208496
 C         -6.875566   -2.972157   -0.018633
 C         -6.459716   -1.613585   -0.014153
 C          6.875585    2.972186    0.018099
 C          6.459725    1.613620    0.013302
 H         -5.500964    1.059661    0.014001
 H          5.500968   -1.059617   -0.015337
 O         -5.936694   -3.937040   -0.013800
 O          5.936725    3.937079    0.012898
 C         -6.377646   -5.300569   -0.014998
 H         -6.973219   -5.513933    0.878972
 H         -6.963442   -5.515790   -0.914997
 H         -5.470866   -5.904668   -0.009402
 C          6.377689    5.300604    0.014461
 H          6.963044    5.515725    0.914771
 H          6.973705    5.514055   -0.879193
 H          5.470918    5.904713    0.008481
 F        -16.297026    2.442200   -0.069011
 F        -14.338829    4.261267   -0.044205
 F         16.296956   -2.442283    0.072761
 F         14.338760   -4.261318    0.045572
       142
S1: Total Energy = -5588.07230232
 C          8.982469    1.911721    0.016426
 C          8.267332    3.122467    0.005512
 C          5.150666    1.096048   -0.007471
 C          4.775337   -0.261351   -0.006409
 C          3.396101   -0.440220   -0.004069
 C          2.680479    0.762996   -0.009813
 C          1.279053    0.531309   -0.010721
 C          1.085043   -0.890959   -0.027394
 C         -0.183476   -1.424456   -0.010108
 S          7.868612    0.542773    0.011535
 S          3.715933    2.154122   -0.014555
 C          2.440786   -1.634410   -0.035525
 H          8.775615    4.078434    0.006605
 H         -0.347136   -2.497747   -0.012177
 C         -8.982490   -1.911703   -0.016455
 C         -8.267362   -3.122453   -0.005444
 C         -5.150687   -1.096052    0.008028
 C         -4.775353    0.261345    0.007055
 C         -3.396116    0.440211    0.004777
 C         -2.680497   -0.763008    0.010498
 C         -1.279071   -0.531325    0.011422
 C         -1.085059    0.890941    0.028119
 C          0.183458    1.424439    0.010810
 S         -7.868625   -0.542761   -0.011293
 S         -3.715957   -2.154131    0.015154
 C         -2.440799    1.634397    0.036311
 H         -8.775650   -4.078418   -0.006668
 H          0.347114    2.497732    0.012871
 C         10.399689    1.918500    0.033947
 C         11.366536    0.925115    0.046958
 C         11.104980   -0.531581    0.030380
 O         10.015735   -1.098120    0.014291
 C         12.421800   -1.204064    0.035146
 C         12.678423   -2.567690    0.020366
 C         14.009295   -2.963336    0.028281
 C         15.033837   -2.009471    0.050864
 C         14.775551   -0.643145    0.066242
 C         13.437632   -0.229637    0.058015
 C         12.812482    1.115295    0.070360
 C         13.526219    2.313222    0.104219
 C         14.950149    2.377307    0.122469
 N         16.112243    2.480446    0.138045
 C         12.934107    3.609491    0.128580
 N         12.501414    4.693267    0.150422
 H         10.770786    2.936945    0.037433
 H         11.878114   -3.299764    0.003208
 H         15.617406    0.035198    0.083124
 C        -10.399705   -1.918472   -0.034337
 C        -11.366542   -0.925079   -0.047584
 C        -11.104983    0.531614   -0.030803
 O        -10.015740    1.098145   -0.014273
 C        -12.421795    1.204107   -0.036013
 C        -12.678414    2.567735   -0.021241
 C        -14.009280    2.963391   -0.029648
 C        -15.033820    2.009535   -0.052700
 C        -14.775539    0.643208   -0.068059
 C        -13.437625    0.229690   -0.059331
 C        -12.812481   -1.115248   -0.071491
 C        -13.526216   -2.313168   -0.105617
 C        -14.950139   -2.377242   -0.124393
 N        -16.112228   -2.480374   -0.140400
 C        -12.934106   -3.609442   -0.129757
 N        -12.501412   -4.693220   -0.151427
 H        -10.770808   -2.936915   -0.037987
 H        -11.878106    3.299802   -0.003724
 H        -15.617392   -0.035127   -0.085312
 C          2.705915   -2.422797   -1.336952
 C          3.780846   -3.324618   -1.395488
 C          4.098650   -3.986802   -2.578216
 C          3.358469   -3.777547   -3.751208
 C          2.294565   -2.871837   -3.691524
 C          1.972824   -2.203191   -2.507942
 H          4.372453   -3.517905   -0.505377
 H          4.937750   -4.678900   -2.589998
 H          1.703696   -2.680155   -4.584343
 H          1.143319   -1.503899   -2.509021
 C          2.523033   -2.520414    1.224941
 C          2.005067   -3.824006    1.214003
 C          1.998143   -4.602682    2.370027
 C          2.509764   -4.114751    3.580058
 C          3.019316   -2.810991    3.588620
 C          3.025243   -2.026036    2.434947
 H          1.612448   -4.242089    0.291995
 H          1.590014   -5.610110    2.328530
 H          3.420024   -2.398561    4.511844
 H          3.426032   -1.018463    2.485788
 C         -2.523060    2.520498   -1.224084
 C         -2.005215    3.824121   -1.213044
 C         -1.998315    4.602874   -2.369036
 C         -2.509829    4.114978   -3.579106
 C         -3.019253    2.811151   -3.587775
 C         -3.025163    2.026139   -2.434161
 H         -1.612667    4.242189   -0.291000
 H         -1.590282    5.610336   -2.327459
 H         -3.419864    2.398730   -4.511048
 H         -3.425848    1.018528   -2.485074
 C         -2.705904    2.422671    1.337815
 C         -3.780843    3.324446    1.396484
 C         -4.098619    3.986510    2.579309
 C         -3.358383    3.777178    3.752229
 C         -2.294466    2.871462    3.692421
 C         -1.972763    2.202953    2.508774
 H         -4.372514    3.517792    0.506428
 H         -4.937752    4.678563    2.591205
 H         -1.703581    2.679670    4.585208
 H         -1.143268    1.503650    2.509755
 C          3.689899   -4.520919   -5.023543
 H          3.298907   -5.546705   -4.997616
 H          3.257159   -4.027278   -5.899409
 C          2.535403   -4.974940    4.821400
 H          2.504711   -4.366233    5.731026
 H          1.688055   -5.668351    4.845728
 C         -2.535568    4.975193   -4.820428
 H         -1.690223    5.671085   -4.843050
 H         -2.501326    4.366652   -5.730050
 C         -3.689549    4.520551    5.024632
 H         -3.260799    4.024183    5.900932
 H         -3.294114    5.544692    5.000714
 H          4.772738   -4.593676   -5.173808
 H          3.450793   -5.580018    4.865417
 H         -3.452677    5.577534   -4.866214
 H         -4.772386    4.597708    5.172556
 C         -6.879828   -2.964145    0.005212
 C         -6.470978   -1.612309    0.002315
 C          6.879797    2.964150   -0.004906
 C          6.470956    1.612312   -0.001911
 H         -5.504138    1.063669    0.010518
 H          5.504125   -1.063672   -0.009867
 O         -5.942443   -3.933885    0.016359
 O          5.942405    3.933884   -0.015933
 C         -6.387408   -5.295256    0.021322
 H         -6.984780   -5.504037    0.915387
 H         -6.972249   -5.514958   -0.878417
 H         -5.482503   -5.902330    0.031382
 C          6.387361    5.295258   -0.021013
 H          6.972345    5.514992    0.878625
 H          6.984588    5.504013   -0.915180
 H          5.482451    5.902326   -0.030947
 F        -16.301640    2.445823   -0.059695
 F        -14.342161    4.262076   -0.015984
 F         16.301662   -2.445749    0.057385
 F         14.342180   -4.262019    0.014573
