       142
S0: Total Energy = -5588.09807107
 C          8.938942    2.191691   -0.049622
 C          8.901962    0.824886    0.187415
 C          5.133844    1.254359    0.188117
 C          4.221961    2.290029    0.310951
 C          2.881844    1.849363    0.228612
 C          2.768517    0.487619    0.051866
 C          1.380519    0.075550    0.010183
 C          0.600955    1.248368    0.186682
 C         -0.784826    1.180191    0.172146
 S          7.377042    2.886668   -0.139213
 S          4.308569   -0.301193   -0.027416
 C          1.500239    2.497595    0.350738
 H         -1.393910    2.070537    0.298603
 C         -8.939006   -2.191757    0.048750
 C         -8.902004   -0.824868   -0.187787
 C         -5.133900   -1.254425   -0.188847
 C         -4.222021   -2.290096   -0.311710
 C         -2.881900   -1.849436   -0.229416
 C         -2.768565   -0.487693   -0.052672
 C         -1.380568   -0.075629   -0.011005
 C         -0.601005   -1.248448   -0.187505
 C          0.784776   -1.180270   -0.172972
 S         -7.377118   -2.886822    0.137962
 S         -4.308608    0.301122    0.026699
 C         -1.500296   -2.497673   -0.351553
 H          1.393860   -2.070613   -0.299444
 C          1.398142    3.155144    1.744176
 C          1.975735    4.416357    1.963185
 C          1.975804    4.998834    3.228296
 C          1.399326    4.348285    4.328712
 C          0.832120    3.088716    4.109738
 C          0.830580    2.500294    2.842776
 H          2.424472    4.954343    1.132941
 H          2.431715    5.977525    3.362734
 H          0.381209    2.552678    4.942069
 H          0.383469    1.519762    2.718230
 C          1.182620    3.487386   -0.789651
 C          0.136440    4.413654   -0.660516
 C         -0.212542    5.256093   -1.714633
 C          0.469129    5.211940   -2.938413
 C          1.508715    4.283659   -3.066196
 C          1.859817    3.436223   -2.014020
 H         -0.407562    4.486157    0.276540
 H         -1.029486    5.962151   -1.581556
 H          2.056237    4.218848   -4.004041
 H          2.669181    2.726610   -2.154414
 C         -1.182668   -3.487465    0.788831
 C         -0.136450   -4.413699    0.659701
 C          0.212540   -5.256142    1.713804
 C         -0.469157   -5.212029    2.937579
 C         -1.508774   -4.283793    3.065355
 C         -1.859888   -3.436346    2.013182
 H          0.407567   -4.486169   -0.277350
 H          1.029508   -5.962173    1.580727
 H         -2.056320   -4.219020    4.003189
 H         -2.669282   -2.726768    2.153576
 C         -1.398217   -3.155220   -1.744994
 C         -1.975831   -4.416420   -1.964008
 C         -1.975920   -4.998886   -3.229126
 C         -1.399442   -4.348338   -4.329540
 C         -0.832215   -3.088776   -4.110560
 C         -0.830655   -2.500367   -2.843595
 H         -2.424573   -4.954405   -1.133766
 H         -2.431848   -5.977568   -3.363570
 H         -0.381307   -2.552736   -4.942891
 H         -0.383533   -1.519841   -2.719042
 C          1.372495    4.997784    5.692442
 H          0.545398    5.715493    5.775506
 H          1.241214    4.255500    6.486384
 C          0.110760    6.150933   -4.066410
 H          0.405204    5.740262   -5.037766
 H         -0.965794    6.351599   -4.093753
 C         -0.110729   -6.151018    4.065561
 H          0.966040   -6.350426    4.093830
 H         -0.406549   -5.741048    5.036791
 C         -1.372615   -4.997822   -5.693276
 H         -1.241801   -4.255483   -6.487245
 H         -0.545231   -5.715181   -5.776510
 H          2.297959    5.549388    5.891781
 H          0.616967    7.119197   -3.954643
 H         -0.615668   -7.119845    3.952955
 H         -2.297888   -5.549811   -5.892428
 C         -7.529414   -0.365345   -0.325581
 C         -6.576959   -1.346690   -0.167993
 C          7.529373    0.365367    0.325256
 C          6.576906    1.346632    0.167271
 H         -4.523349   -3.320433   -0.466962
 H          4.523286    3.320364    0.466214
 O         -7.222631    0.948570   -0.551272
 O          7.222655   -0.948487    0.551365
 C         -7.053039    1.298557   -1.943512
 H         -6.221540    0.738390   -2.382054
 H         -7.973306    1.104081   -2.503063
 H         -6.837331    2.366638   -1.959135
 C          7.052745   -1.297984    1.943684
 H          7.972859   -1.103215    2.503392
 H          6.221094   -0.737729    2.381825
 H          6.837133   -2.366078    1.959644
 H         -9.821904   -2.796875    0.183391
 H          9.821839    2.796782   -0.184396
 C         -9.974098    0.130524   -0.275551
 C        -11.337824    0.039034   -0.142152
 H         -9.581686    1.126984   -0.450542
 C        -12.142557   -1.160435    0.234036
 C        -12.276586    1.174536   -0.239388
 O        -11.783279   -2.325171    0.357949
 C        -13.523418   -0.683664    0.464379
 C        -13.604682    0.695247    0.208745
 C        -12.026908    2.447396   -0.714299
 C        -14.611350   -1.442243    0.880601
 C        -14.829278    1.353958    0.384901
 C        -13.017853    3.477354   -0.753907
 C        -10.782214    2.888612   -1.260964
 C        -15.816054   -0.779458    1.050420
 H        -14.526129   -2.507105    1.067961
 C        -15.914400    0.599271    0.807507
 H        -14.976871    2.411991    0.218462
 N        -13.788783    4.349175   -0.803035
 N         -9.807766    3.316182   -1.735115
 F        -16.911687   -1.433064    1.452107
 F        -17.102366    1.186540    0.995748
 C          9.974057   -0.130460    0.275652
 C         11.337817   -0.038992    0.142575
 H          9.581607   -1.126867    0.450840
 C         12.142636    1.160433   -0.233566
 C         12.276588   -1.174439    0.240397
 O         11.783324    2.325108   -0.357966
 C         13.523639    0.683711   -0.463142
 C         13.604874   -0.695138   -0.207172
 C         12.026749   -2.447292    0.715236
 C         14.611703    1.442267   -0.879059
 C         14.829591   -1.353808   -0.382648
 C         13.017771   -3.477151    0.755545
 C         10.781755   -2.888632    1.261123
 C         15.816524    0.779525   -1.048201
 H         14.526489    2.507080   -1.066705
 C         15.914852   -0.599144   -0.804936
 H         14.977184   -2.411794   -0.215914
 N         13.788757   -4.348890    0.805246
 N          9.807060   -3.316315    1.734664
 F         16.912291    1.433109   -1.449559
 F         17.102941   -1.186376   -0.992517
       142
T1: Total Energy = -5588.05806955
 C          8.886271   -2.196590    0.196067
 C          8.845199   -0.829213   -0.034947
 C          5.088121   -1.264961   -0.000088
 C          4.169162   -2.311028    0.008756
 C          2.840051   -1.859321    0.032986
 C          2.735017   -0.474564    0.037588
 C          1.366952   -0.057499    0.038269
 C          0.569064   -1.247735    0.011092
 C         -0.804760   -1.165470    0.021158
 S          7.331398   -2.905104    0.298777
 S          4.280077    0.311690    0.021273
 C          1.458327   -2.512413    0.002904
 H         -1.426978   -2.054725    0.007269
 C         -8.889623    2.199770   -0.050628
 C         -8.835909    0.807593    0.000527
 C         -5.105155    1.315032    0.051482
 C         -4.174138    2.373024    0.056605
 C         -2.858843    1.929286    0.050314
 C         -2.749938    0.529517    0.046295
 C         -1.389233    0.120350    0.048573
 C         -0.590845    1.309267    0.077045
 C          0.786122    1.225058    0.067047
 S         -7.340600    2.978145   -0.055753
 S         -4.287379   -0.265412    0.037896
 C         -1.474652    2.577057    0.088185
 H          1.407758    2.114710    0.080142
 C          1.347185   -3.339936   -1.296981
 C          1.887913   -4.634663   -1.345831
 C          1.879264   -5.371716   -2.527467
 C          1.331792   -4.848804   -3.707873
 C          0.803860   -3.554380   -3.657819
 C          0.811836   -2.810179   -2.476143
 H          2.310975   -5.077741   -0.449023
 H          2.303674   -6.373244   -2.531298
 H          0.376424   -3.115193   -4.556267
 H          0.396032   -1.808054   -2.485115
 C          1.143197   -3.341775    1.265934
 C          0.085114   -4.263581    1.263488
 C         -0.263248   -4.957716    2.420166
 C          0.430390   -4.763767    3.623093
 C          1.481007   -3.839583    3.622736
 C          1.831643   -3.138465    2.467439
 H         -0.466842   -4.451970    0.347561
 H         -1.088326   -5.665587    2.385381
 H          2.037681   -3.661149    4.539917
 H          2.649524   -2.425986    2.512593
 C         -1.151712    3.412435   -1.168633
 C         -0.100267    4.340879   -1.151352
 C          0.255920    5.041195   -2.302419
 C         -0.422781    4.846226   -3.513067
 C         -1.466032    3.913089   -3.527829
 C         -1.824250    3.206198   -2.379156
 H          0.439941    4.530225   -0.228721
 H          1.074826    5.755523   -2.256173
 H         -2.011065    3.732953   -4.451529
 H         -2.636528    2.488298   -2.437037
 C         -1.367034    3.393824    1.395127
 C         -1.911172    4.686975    1.453826
 C         -1.906085    5.413106    2.641631
 C         -1.359218    4.880558    3.818594
 C         -0.827075    3.588764    3.757918
 C         -0.831835    2.854545    2.569567
 H         -2.335245    5.136362    0.560666
 H         -2.334514    6.412768    2.654132
 H         -0.401184    3.142296    4.653447
 H         -0.414742    1.852892    2.570754
 C          1.293764   -5.665578   -4.977677
 H          0.451801   -6.370255   -4.970065
 H          1.178487   -5.028254   -5.860060
 C          0.070071   -5.544705    4.864675
 H          0.421382   -5.040659    5.770619
 H         -1.013103   -5.683797    4.949549
 C         -0.058939    5.635492   -4.748256
 H          1.011801    5.863615   -4.776705
 H         -0.317020    5.090594   -5.662072
 C         -1.331554    5.685048    5.096418
 H         -1.153471    5.046439    5.967184
 H         -0.534495    6.439739    5.072532
 H          2.207536   -6.257252   -5.100754
 H          0.523280   -6.544750    4.849220
 H         -0.595158    6.593308   -4.777636
 H         -2.275192    6.219422    5.252938
 C         -7.458801    0.390517    0.078711
 C         -6.518508    1.424182    0.036592
 C          7.472287   -0.376783   -0.157397
 C          6.524707   -1.366747    0.009322
 H         -4.480236    3.412263    0.070042
 H          4.466096   -3.353333   -0.013164
 O         -7.051629   -0.901516    0.137044
 O          7.142278    0.928306   -0.372752
 C         -7.269883   -1.596526    1.391481
 H         -6.559260   -1.233498    2.140884
 H         -8.293664   -1.451649    1.741086
 H         -7.101119   -2.650566    1.177352
 C          7.116951    1.336344   -1.761984
 H          8.088097    1.157684   -2.233091
 H          6.334416    0.795940   -2.303326
 H          6.905914    2.404813   -1.752874
 H         -9.789547    2.792638   -0.101752
 H          9.773430   -2.797934    0.321909
 C         -9.872862   -0.192354   -0.081761
 C        -11.262502   -0.121954   -0.087434
 H         -9.457042   -1.183684   -0.198279
 C        -12.099369    1.109628    0.031221
 C        -12.169198   -1.243938   -0.203691
 O        -11.745423    2.280932    0.150879
 C        -13.512608    0.674679   -0.026077
 C        -13.553637   -0.725364   -0.172934
 C        -11.849135   -2.620450   -0.316587
 C        -14.645591    1.469499    0.044692
 C        -14.804108   -1.352653   -0.251777
 C        -12.828966   -3.638063   -0.460157
 C        -10.539101   -3.164725   -0.288013
 C        -15.879289    0.832732   -0.035336
 H        -14.579331    2.546420    0.158658
 C        -15.943365   -0.553836   -0.181121
 H        -14.935597   -2.419875   -0.365220
 N        -13.598238   -4.510971   -0.581805
 N         -9.490722   -3.685274   -0.264786
 F        -17.027392    1.535829    0.025763
 F        -17.158054   -1.128026   -0.254521
 C          9.910276    0.141299   -0.101523
 C         11.276304    0.052594   -0.043667
 H          9.503437    1.142402   -0.191555
 C         12.104446   -1.178706    0.132953
 C         12.211778    1.197689   -0.107474
 O         11.740292   -2.345888    0.205836
 C         13.509105   -0.732110    0.220716
 C         13.578699    0.665737    0.095705
 C         11.920080    2.526580   -0.342805
 C         14.629414   -1.533915    0.408318
 C         14.828565    1.297267    0.166390
 C         12.914548    3.553872   -0.378843
 C         10.615783    3.050581   -0.603261
 C         15.857672   -0.897446    0.475078
 H         14.550497   -2.611637    0.500304
 C         15.946918    0.498908    0.357213
 H         14.973212    2.365512    0.085300
 N         13.683919    4.427341   -0.417126
 N          9.587565    3.548019   -0.832369
 F         16.985238   -1.591956    0.655215
 F         17.159582    1.057851    0.434257
       142
S1: Total Energy = -5588.05351195
 C          8.875079   -2.204462    0.178580
 C          8.836363   -0.833071   -0.029761
 C          5.083314   -1.265409   -0.003091
 C          4.160147   -2.312603    0.010513
 C          2.835817   -1.860364    0.029990
 C          2.732473   -0.470122    0.026973
 C          1.370382   -0.052193    0.025378
 C          0.567892   -1.241884    0.002611
 C         -0.805184   -1.156099    0.007855
 S          7.321078   -2.915934    0.268626
 S          4.278746    0.314017    0.009430
 C          1.452683   -2.509356    0.002781
 H         -1.429978   -2.043355   -0.004420
 C         -8.898760    2.215247   -0.136390
 C         -8.840308    0.839814   -0.056299
 C         -5.097063    1.337291    0.006003
 C         -4.169555    2.390135    0.012901
 C         -2.850350    1.940941    0.015243
 C         -2.744623    0.544378    0.017122
 C         -1.386552    0.131733    0.027399
 C         -0.582746    1.321517    0.053827
 C          0.791144    1.234395    0.047249
 S         -7.347480    2.990652   -0.151757
 S         -4.289279   -0.243956    0.003834
 C         -1.466892    2.588999    0.056124
 H          1.415582    2.122109    0.057778
 C          1.341678   -3.343175   -1.293038
 C          1.874629   -4.641388   -1.333153
 C          1.865407   -5.383955   -2.511267
 C          1.325231   -4.863295   -3.696108
 C          0.805412   -3.565259   -3.654462
 C          0.814232   -2.815248   -2.476570
 H          2.291228   -5.082986   -0.432620
 H          2.283128   -6.388247   -2.508731
 H          0.383705   -3.127922   -4.556431
 H          0.404686   -1.810612   -2.492151
 C          1.133793   -3.328970    1.271174
 C          0.074716   -4.249872    1.272181
 C         -0.277839   -4.934295    2.433038
 C          0.411981   -4.731019    3.636938
 C          1.463356   -3.808026    3.632776
 C          1.818206   -3.116079    2.473080
 H         -0.474438   -4.445037    0.356051
 H         -1.103313   -5.641784    2.401062
 H          2.017085   -3.622745    4.550297
 H          2.636208   -2.403542    2.516265
 C         -1.139186    3.418082   -1.203412
 C         -0.086629    4.345356   -1.188167
 C          0.272528    5.039991   -2.341691
 C         -0.404340    4.840400   -3.552736
 C         -1.448813    3.908657   -3.565258
 C         -1.809953    3.207217   -2.414106
 H          0.451639    4.538663   -0.265174
 H          1.091971    5.753827   -2.297195
 H         -1.992673    3.725413   -4.489013
 H         -2.623328    2.490397   -2.469865
 C         -1.365579    3.411216    1.360051
 C         -1.903739    4.707199    1.408909
 C         -1.905021    5.438087    2.593895
 C         -1.371040    4.907614    3.777558
 C         -0.845446    3.612546    3.726810
 C         -0.843974    2.873674    2.541568
 H         -2.318666    5.154776    0.510634
 H         -2.328817    6.439764    2.598763
 H         -0.430300    3.167262    4.627961
 H         -0.433192    1.869408    2.550752
 C          1.286060   -5.686146   -4.961841
 H          0.438264   -6.383727   -4.953851
 H          1.179531   -5.052517   -5.847940
 C          0.043970   -5.499938    4.883657
 H          0.440879   -5.018194    5.782705
 H         -1.042558   -5.585981    4.994187
 C         -0.037427    5.623949   -4.790641
 H          1.033825    5.849765   -4.818851
 H         -0.295771    5.076053   -5.702576
 C         -1.349716    5.717061    5.052332
 H         -1.194548    5.079563    5.928302
 H         -0.540496    6.458981    5.037252
 H          2.195419   -6.285924   -5.077852
 H          0.446064   -6.521117    4.852545
 H         -0.571604    6.582746   -4.824286
 H         -2.287001    6.266782    5.192508
 C         -7.455943    0.417890    0.034386
 C         -6.522056    1.446532   -0.022423
 C          7.465504   -0.378028   -0.146011
 C          6.515781   -1.371963    0.005289
 H         -4.472332    3.430322    0.020924
 H          4.456278   -3.355122   -0.005158
 O         -7.057494   -0.875768    0.115624
 O          7.132538    0.927676   -0.340742
 C         -7.284787   -1.549953    1.379104
 H         -6.564886   -1.190618    2.121456
 H         -8.304240   -1.380409    1.731087
 H         -7.138881   -2.610050    1.178644
 C          7.132873    1.368921   -1.721175
 H          8.111204    1.197349   -2.179239
 H          6.357859    0.843682   -2.287476
 H          6.925190    2.437464   -1.689462
 H         -9.796232    2.809327   -0.206425
 H          9.762235   -2.807953    0.294980
 C         -9.878178   -0.179527   -0.128572
 C        -11.252369   -0.127044   -0.107754
 H         -9.448903   -1.165672   -0.249837
 C        -12.100290    1.107659    0.019869
 C        -12.163996   -1.265161   -0.199139
 O        -11.740380    2.280433    0.106599
 C        -13.500311    0.656809    0.009334
 C        -13.529922   -0.751578   -0.129793
 C        -11.823894   -2.642965   -0.319389
 C        -14.642164    1.440957    0.109350
 C        -14.786602   -1.387265   -0.166372
 C        -12.792884   -3.669572   -0.452194
 C        -10.508134   -3.166313   -0.309032
 C        -15.868905    0.795259    0.071955
 H        -14.581603    2.519236    0.214226
 C        -15.923345   -0.597946   -0.064523
 H        -14.912379   -2.456181   -0.271176
 N        -13.560079   -4.546762   -0.565221
 N         -9.447243   -3.664435   -0.300364
 F        -17.025006    1.484816    0.164454
 F        -17.137939   -1.177405   -0.096252
 C          9.903641    0.138104   -0.074334
 C         11.268582    0.044890   -0.020070
 H          9.498636    1.141784   -0.138773
 C         12.094739   -1.193428    0.119239
 C         12.207515    1.189503   -0.053806
 O         11.726805   -2.360787    0.161471
 C         13.500416   -0.752949    0.212721
 C         13.573227    0.647904    0.127812
 C         11.917732    2.525262   -0.246880
 C         14.619417   -1.562809    0.372066
 C         14.825180    1.273939    0.211086
 C         12.914536    3.550982   -0.257214
 C         10.612941    3.059264   -0.483758
 C         15.849579   -0.931712    0.451388
 H         14.538013   -2.642500    0.433497
 C         15.942099    0.467464    0.373471
 H         14.972418    2.343693    0.160081
 N         13.685921    4.423273   -0.273524
 N          9.583575    3.563553   -0.691582
 F         16.975901   -1.633753    0.606268
 F         17.156449    1.020468    0.460941
