       134
S0: Total Energy = -5359.08123685
 C          8.981009    2.021628    0.035215
 C          8.215683    3.200307    0.028192
 C          5.167796    1.084469    0.015036
 C          4.797135   -0.257061    0.009811
 C          3.402776   -0.434961    0.012799
 C          2.700433    0.757885    0.011966
 C          1.274900    0.528694    0.001157
 C          1.088565   -0.880037   -0.027061
 C         -0.189166   -1.416902   -0.022972
 S          7.904293    0.619355    0.031744
 S          3.739171    2.138190    0.012770
 C          2.443343   -1.626705   -0.029534
 H          8.683438    4.179291    0.029077
 H         -0.349873   -2.490851   -0.034581
 C         -8.981025   -2.021614   -0.035262
 C         -8.215700   -3.200294   -0.028240
 C         -5.167810   -1.084461   -0.015063
 C         -4.797147    0.257068   -0.009807
 C         -3.402788    0.434965   -0.012800
 C         -2.700446   -0.757882   -0.011999
 C         -1.274912   -0.528693   -0.001196
 C         -1.088576    0.880037    0.027034
 C          0.189154    1.416903    0.022932
 S         -7.904306   -0.619343   -0.031784
 S         -3.739186   -2.138185   -0.012831
 C         -2.443353    1.626707    0.029563
 H         -8.683458   -4.179277   -0.029129
 H          0.349857    2.490852    0.034539
 C         10.394497    2.083379    0.045792
 C         11.398912    1.132505    0.053029
 C         11.198066   -0.331922    0.043696
 O         10.135700   -0.946023    0.036373
 C         12.543889   -0.947486    0.043695
 C         12.855980   -2.300792    0.033347
 C         14.200568   -2.640538    0.034666
 C         15.187781   -1.645982    0.046261
 C         14.873779   -0.292746    0.056856
 C         13.519927    0.063867    0.055598
 C         12.839606    1.385801    0.065310
 C         13.502443    2.603227    0.086207
 C         14.925273    2.724512    0.097126
 N         16.080788    2.875960    0.106632
 C         12.857244    3.877067    0.101927
 N         12.381510    4.941204    0.115829
 H         10.722878    3.116883    0.047626
 H         12.086003   -3.064744    0.024414
 H         15.687440    0.419264    0.065127
 C        -10.394512   -2.083361   -0.045843
 C        -11.398924   -1.132485   -0.053083
 C        -11.198072    0.331941   -0.043760
 O        -10.135704    0.946038   -0.036429
 C        -12.543892    0.947511   -0.043782
 C        -12.855977    2.300819   -0.033454
 C        -14.200565    2.640571   -0.034798
 C        -15.187782    1.646019   -0.046397
 C        -14.873785    0.292782   -0.056971
 C        -13.519935   -0.063837   -0.055688
 C        -12.839620   -1.385775   -0.065372
 C        -13.502462   -2.603198   -0.086246
 C        -14.925293   -2.724476   -0.097176
 N        -16.080808   -2.875917   -0.106691
 C        -12.857269   -3.877042   -0.101924
 N        -12.381541   -4.941182   -0.115779
 H        -10.722896   -3.116864   -0.047682
 H        -12.085997    3.064768   -0.024519
 H        -15.687449   -0.419225   -0.065247
 C          2.713251   -2.414989   -1.330147
 C          3.792070   -3.312366   -1.386761
 C          4.114505   -3.975291   -2.568004
 C          3.374604   -3.771725   -3.742044
 C          2.306079   -2.871431   -3.684454
 C          1.979556   -2.202613   -2.502085
 H          4.383140   -3.502003   -0.495354
 H          4.956772   -4.663716   -2.577639
 H          1.714548   -2.684740   -4.577989
 H          1.146173   -1.508032   -2.504189
 C          2.516803   -2.519388    1.227374
 C          1.988306   -3.818723    1.209636
 C          1.973863   -4.604039    2.361247
 C          2.488565   -4.127358    3.574289
 C          3.009371   -2.828132    3.590005
 C          3.023191   -2.037029    2.440472
 H          1.592661   -4.228319    0.285064
 H          1.556973   -5.607685    2.313774
 H          3.413092   -2.424235    4.515801
 H          3.432222   -1.033063    2.496552
 C         -2.516838    2.519446   -1.227302
 C         -1.988461    3.818812   -1.209507
 C         -1.974050    4.604172   -2.361108
 C         -2.488657    4.127488   -3.574170
 C         -3.009338    2.828195   -3.589950
 C         -3.023132    2.037070   -2.440451
 H         -1.592877    4.228421   -0.284915
 H         -1.557255    5.607852   -2.313591
 H         -3.412970    2.424279   -4.515778
 H         -3.432060    1.033064   -2.496570
 C         -2.713224    2.414921    1.330230
 C         -3.792020    3.312288    1.386946
 C         -4.114418    3.975127    2.568271
 C         -3.374483    3.771484    3.742251
 C         -2.305974    2.871143    3.684569
 C         -1.979499    2.202430    2.502152
 H         -4.383140    3.501983    0.495586
 H         -4.956696    4.663534    2.577998
 H         -1.714445    2.684338    4.578082
 H         -1.146151    1.507807    2.504179
 C          3.710376   -4.516073   -5.012862
 H          3.323717   -5.543503   -4.986011
 H          3.276459   -4.025654   -5.890021
 C          2.505873   -4.994509    4.811093
 H          2.479621   -4.390419    5.723995
 H          1.652328   -5.680480    4.831239
 C         -2.506077    4.994629   -4.810980
 H         -1.654572    5.683162   -4.829381
 H         -2.476172    4.390652   -5.723856
 C         -3.709967    4.515880    5.013116
 H         -3.280361    4.022527    5.890764
 H         -3.318500    5.541553    4.988408
 H          4.793678   -4.584522   -5.162262
 H          3.415718   -5.608127    4.853020
 H         -3.417714    5.605453   -4.854757
 H         -4.793285    4.589091    5.159969
 C         -6.838481   -3.000081   -0.020591
 C         -6.486779   -1.646819   -0.021468
 C          6.838464    3.000092    0.020549
 C          6.486764    1.646829    0.021433
 H         -5.522081    1.063478   -0.001797
 H          5.522071   -1.063470    0.001827
 F        -16.470865    2.031746   -0.046949
 F        -14.587019    3.922510   -0.024983
 F         16.470867   -2.031704    0.046788
 F         14.587028   -3.922476    0.024831
 H         -6.112657   -3.805448   -0.014162
 H          6.112638    3.805457    0.014122
       134
T1: Total Energy = -5359.03941379
 C         -8.947091   -2.032900    0.032557
 C         -8.175163   -3.221731    0.029141
 C         -5.144776   -1.113884    0.006216
 C         -4.773245    0.248853    0.000369
 C         -3.399073    0.431104   -0.000592
 C         -2.671746   -0.772071   -0.002188
 C         -1.277016   -0.536282   -0.006536
 C         -1.088468    0.889190   -0.029571
 C          0.175965    1.426681   -0.016027
 S         -7.875251   -0.630099    0.022460
 S         -3.704960   -2.167224    0.001430
 C         -2.446972    1.628062   -0.039818
 H         -8.647548   -4.198142    0.034198
 H          0.336230    2.500460   -0.022433
 C          8.947112    2.032871   -0.032656
 C          8.175190    3.221705   -0.029099
 C          5.144799    1.113872   -0.005363
 C          4.773263   -0.248862    0.000622
 C          3.399090   -0.431109    0.001743
 C          2.671767    0.772069    0.003333
 C          1.277036    0.536285    0.007742
 C          1.088487   -0.889185    0.030810
 C         -0.175944   -1.426678    0.017243
 S          7.875268    0.630074   -0.022168
 S          3.704987    2.167218   -0.000466
 C          2.446987   -1.628062    0.041105
 H          8.647578    4.198113   -0.034352
 H         -0.336205   -2.500458    0.023635
 C        -10.356563   -2.095811    0.044405
 C        -11.364367   -1.137319    0.050358
 C        -11.159315    0.327774    0.039621
 O        -10.094152    0.937953    0.028395
 C        -12.502239    0.949180    0.044690
 C        -12.811426    2.302317    0.036468
 C        -14.156261    2.645548    0.043577
 C        -15.143258    1.652969    0.058790
 C        -14.831321    0.297671    0.067041
 C        -13.479167   -0.061746    0.059737
 C        -12.798326   -1.384384    0.065143
 C        -13.466511   -2.606065    0.083324
 C        -14.887955   -2.723005    0.096514
 N        -16.044730   -2.870701    0.107739
 C        -12.827243   -3.881072    0.092442
 N        -12.358424   -4.949200    0.100881
 H        -10.688358   -3.127647    0.049580
 H        -12.040134    3.064967    0.024913
 H        -15.646323   -0.412794    0.078483
 C         10.356580    2.095774   -0.045011
 C         11.364377    1.137277   -0.051306
 C         11.159324   -0.327814   -0.040312
 O         10.094164   -0.937986   -0.028444
 C         12.502242   -0.949226   -0.046038
 C         12.811427   -2.302365   -0.037850
 C         14.156255   -2.645603   -0.045679
 C         15.143249   -1.653030   -0.061558
 C         14.831315   -0.297732   -0.069762
 C         13.479166    0.061693   -0.061727
 C         12.798329    1.384334   -0.066849
 C         13.466511    2.606011   -0.085431
 C         14.887947    2.722944   -0.099436
 N         16.044716    2.870635   -0.111327
 C         12.827244    3.881021   -0.094184
 N         12.358428    4.949153   -0.102354
 H         10.688377    3.127609   -0.050395
 H         12.040138   -3.065009   -0.025788
 H         15.646314    0.412728   -0.081736
 C         -2.716995    2.406988   -1.346294
 C         -3.794718    3.305151   -1.408641
 C         -4.116466    3.958414   -2.595214
 C         -3.377833    3.743290   -3.768161
 C         -2.311245    2.841057   -3.704415
 C         -1.985382    2.181302   -2.516968
 H         -4.385092    3.503103   -0.518752
 H         -4.957329    4.648254   -2.610034
 H         -1.721488    2.645066   -4.596990
 H         -1.153781    1.484520   -2.515056
 C         -2.531879    2.521318    1.215429
 C         -2.019472    3.826951    1.194927
 C         -2.013707    4.612946    2.345987
 C         -2.520908    4.130579    3.560101
 C         -3.024689    2.824676    3.578069
 C         -3.029402    2.032303    2.429468
 H         -1.630613    4.240995    0.269529
 H         -1.610117    5.621827    2.297171
 H         -3.421775    2.416358    4.504640
 H         -3.425623    1.023326    2.488303
 C          2.531879   -2.521453   -1.214044
 C          2.019513   -3.827085   -1.193419
 C          2.013739   -4.613181   -2.344429
 C          2.520883   -4.130907   -3.558585
 C          3.024616   -2.824970   -3.576681
 C          3.029342   -2.032515   -2.428156
 H          1.630680   -4.241069   -0.267984
 H          1.610181   -5.622069   -2.295519
 H          3.421644   -2.416708   -4.503303
 H          3.425517   -1.023525   -2.487082
 C          2.717015   -2.406826    1.347681
 C          3.794849   -3.304817    1.410225
 C          4.116591   -3.957901    2.596919
 C          3.377825   -3.742766    3.769757
 C          2.311121   -2.840655    3.705823
 C          1.985274   -2.181094    2.518286
 H          4.385352   -3.502774    0.520422
 H          4.957567   -4.647598    2.611902
 H          1.721283   -2.644610    4.598334
 H          1.153600   -1.484400    2.516224
 C         -3.713719    4.477113   -5.044798
 H         -3.325177    5.503957   -5.026372
 H         -3.281488    3.978674   -5.918164
 C         -2.547978    4.998662    4.795860
 H         -2.512786    4.396084    5.709376
 H         -1.703828    5.696104    4.813890
 C          2.548015   -4.999046   -4.794305
 H          1.705768   -5.698810   -4.810674
 H          2.509450   -4.396662   -5.707823
 C          3.713486   -4.476521    5.046492
 H          3.284889   -3.975542    5.920207
 H          3.320898   -5.501867    5.029953
 H         -4.797025    4.546191   -5.193237
 H         -3.466067    5.599756    4.837539
 H          3.467711   -5.597561   -4.837683
 H          4.796798   -4.549610    5.192821
 C          6.807518    3.025015   -0.019372
 C          6.444324    1.663928   -0.014579
 C         -6.807489   -3.025034    0.019779
 C         -6.444300   -1.663946    0.015147
 H          5.506469   -1.047134    0.006459
 H         -5.506452    1.047124   -0.005499
 F         16.426985   -2.039147   -0.068789
 F         14.539424   -3.929982   -0.038334
 F        -16.426999    2.039078    0.065323
 F        -14.539432    3.929926    0.036150
 H          6.082765    3.831903   -0.015882
 H         -6.082732   -3.831920    0.016419
       134
S1: Total Energy = -5359.02423435
 C         -8.952147   -2.035392    0.025443
 C         -8.185501   -3.218860    0.019563
 C         -5.144986   -1.106655    0.002523
 C         -4.778183    0.248383    0.007582
 C         -3.396839    0.431208    0.006671
 C         -2.675598   -0.769124   -0.005646
 C         -1.275905   -0.535147   -0.009048
 C         -1.087827    0.889137   -0.021272
 C          0.178573    1.426337   -0.005366
 S         -7.879802   -0.633000    0.017374
 S         -3.710667   -2.160215   -0.012873
 C         -2.445651    1.627961   -0.022687
 H         -8.655610   -4.196345    0.023476
 H          0.339506    2.499948   -0.004118
 C          8.952156    2.035413   -0.024958
 C          8.185513    3.218880   -0.018703
 C          5.144998    1.106676   -0.001472
 C          4.778194   -0.248362   -0.006491
 C          3.396851   -0.431189   -0.005523
 C          2.675610    0.769144    0.006808
 C          1.275916    0.535168    0.010234
 C          1.087838   -0.889116    0.022463
 C         -0.178561   -1.426317    0.006549
 S          7.879811    0.633021   -0.016907
 S          3.710679    2.160235    0.013957
 C          2.445662   -1.627941    0.023896
 H          8.655622    4.196366   -0.022547
 H         -0.339493   -2.499927    0.005295
 C        -10.368186   -2.095699    0.039831
 C        -11.371446   -1.139534    0.047464
 C        -11.164021    0.326669    0.029963
 O        -10.097327    0.934019    0.015732
 C        -12.505366    0.949138    0.032025
 C        -12.812693    2.302389    0.015795
 C        -14.157249    2.648038    0.021202
 C        -15.145612    1.656543    0.042908
 C        -14.836534    0.300932    0.059315
 C        -13.484116   -0.062182    0.053693
 C        -12.809375   -1.383292    0.067135
 C        -13.478254   -2.606290    0.097565
 C        -14.899020   -2.722603    0.114892
 N        -16.056394   -2.868917    0.129902
 C        -12.839237   -3.880360    0.118244
 N        -12.368962   -4.948294    0.136600
 H        -10.699502   -3.127878    0.045304
 H        -12.040213    3.063774   -0.000626
 H        -15.652586   -0.408263    0.075237
 C         10.368190    2.095720   -0.039759
 C         11.371444    1.139554   -0.047998
 C         11.164022   -0.326651   -0.030733
 O         10.097333   -0.933998   -0.015963
 C         12.505361   -0.949129   -0.033834
 C         12.812690   -2.302386   -0.018187
 C         14.157240   -2.648042   -0.024571
 C         15.145595   -1.656547   -0.046646
 C         14.836515   -0.300929   -0.062443
 C         13.484103    0.062192   -0.055836
 C         12.809363    1.383310   -0.068392
 C         13.478236    2.606314   -0.098718
 C         14.898991    2.722616   -0.116996
 N         16.056356    2.868924   -0.132780
 C         12.839222    3.880403   -0.118296
 N         12.368947    4.948352   -0.135772
 H         10.699507    3.127900   -0.045153
 H         12.040216   -3.063772   -0.001477
 H         15.652562    0.408264   -0.078692
 C         -2.718454    2.418499   -1.321337
 C         -3.795326    3.318428   -1.372523
 C         -4.119637    3.982243   -2.552484
 C         -3.384610    3.776375   -3.729372
 C         -2.319014    2.872084   -3.676743
 C         -1.990741    2.201487   -2.496218
 H         -4.382807    3.509409   -0.479242
 H         -4.959693    4.673140   -2.558929
 H         -1.732244    2.683083   -4.572745
 H         -1.160402    1.503161   -2.503237
 C         -2.527217    2.507572    1.242285
 C         -2.018451    3.814709    1.234469
 C         -2.010676    4.587346    2.394497
 C         -2.512153    4.089585    3.604866
 C         -3.012282    2.782106    3.609898
 C         -3.018763    2.002904    2.452442
 H         -1.634238    4.240390    0.312436
 H         -1.610130    5.597852    2.355900
 H         -3.404798    2.362192    4.533183
 H         -3.411392    0.991934    2.501160
 C          2.527224   -2.507631   -1.241017
 C          2.018924   -3.814933   -1.232970
 C          2.011155   -4.587679   -2.392942
 C          2.512175   -4.089856   -3.603457
 C          3.011847   -2.782186   -3.608719
 C          3.018325   -2.002893   -2.451342
 H          1.635075   -4.240676   -0.310814
 H          1.610974   -5.598320   -2.354165
 H          3.403994   -2.362209   -4.532135
 H          3.410590   -0.991790   -2.500230
 C          2.718471   -2.418414    1.322587
 C          3.795148   -3.318554    1.373720
 C          4.119465   -3.982338    2.553715
 C          3.384620   -3.776232    3.730655
 C          2.319207   -2.871697    3.678081
 C          1.990936   -2.201146    2.497548
 H          4.382497   -3.509727    0.480392
 H          4.959392   -4.673389    2.560129
 H          1.732601   -2.682470    4.574144
 H          1.160760   -1.502627    2.504608
 C         -3.723234    4.521727   -4.998475
 H         -3.333687    5.547995   -4.971697
 H         -3.293749    4.030806   -5.877398
 C         -2.536982    4.943316    4.850531
 H         -2.496659    4.330397    5.756893
 H         -1.694857    5.643023    4.873320
 C          2.537086   -4.943640   -4.849085
 H          1.697023   -5.645859   -4.870141
 H          2.493146   -4.330934   -5.755434
 C          3.723043   -4.521661    4.999767
 H          3.297254   -4.028277    5.879120
 H          3.329418   -5.546426    4.974808
 H         -4.806857    4.593101   -5.143262
 H         -3.456719    5.541059    4.902358
 H          3.458534   -5.538586   -4.902704
 H          4.806665   -4.597087    5.142355
 C          6.810831    3.019883   -0.009252
 C          6.453666    1.664805   -0.008058
 C         -6.810819   -3.019863    0.010360
 C         -6.453655   -1.664784    0.009005
 H          5.509937   -1.047892   -0.009285
 H         -5.509926    1.047913    0.010368
 F         16.428667   -2.045211   -0.052144
 F         14.538550   -3.933233   -0.009924
 F        -16.428690    2.045201    0.047445
 F        -14.538557    3.933221    0.005933
 H          6.086526    3.827214   -0.004658
 H         -6.086511   -3.827193    0.006068
