        80
S0: Total Energy = -3405.45016561
 C         -5.171438    1.537059   -0.008229
 C         -4.374110    2.708488   -0.013588
 C         -3.007651    2.421822   -0.017840
 C         -2.693990    1.059571   -0.015744
 C         -1.345813    0.500753   -0.017496
 C         -1.077343   -0.895641   -0.016607
 C          0.231363   -1.363206   -0.016728
 S         -4.151165    0.096667   -0.010499
 H          0.397939   -2.430325   -0.015287
 C          5.171416   -1.537025   -0.008147
 C          4.374074   -2.708447   -0.012937
 C          3.007618   -2.421767   -0.017364
 C          2.693974   -1.059512   -0.015989
 C          1.345800   -0.500686   -0.017656
 C          1.077328    0.895708   -0.019220
 C         -0.231377    1.363273   -0.019186
 S          4.151163   -0.096622   -0.011283
 H         -0.397953    2.430391   -0.019881
 C         -6.584596    1.613444    0.003282
 C         -7.612149    0.684925    0.008122
 C         -7.462991   -0.787071   -0.014953
 O         -6.426080   -1.441591   -0.029326
 C         -8.830191   -1.354863   -0.020318
 C         -9.187781   -2.696690   -0.044394
 C        -10.542931   -2.990980   -0.045856
 C        -11.495880   -1.963710   -0.023540
 C        -11.136188   -0.622238    0.001052
 C         -9.770787   -0.311525    0.002647
 C         -9.044641    0.985749    0.026659
 C         -9.669373    2.223335    0.066450
 C        -11.087907    2.388786    0.080969
 N        -12.237752    2.578313    0.093780
 C         -8.990325    3.478497    0.102013
 N         -8.494017    4.533115    0.133198
 H         -8.443739   -3.485793   -0.061482
 H        -11.925551    0.116373    0.017049
 H         -6.909246    2.646700    0.008426
 C          6.584572   -1.613433    0.003295
 C          7.612150   -0.684938    0.007826
 C          7.463012    0.787062   -0.015053
 O          6.426110    1.441593   -0.029615
 C          8.830218    1.354846   -0.019887
 C          9.187822    2.696679   -0.043420
 C         10.542974    2.990961   -0.044355
 C         11.495909    1.963677   -0.022076
 C         11.136202    0.622199    0.001937
 C          9.770799    0.311493    0.003015
 C          9.044636   -0.985786    0.026311
 C          9.669364   -2.223403    0.065254
 C         11.087896   -2.388860    0.079912
 N         12.237738   -2.578404    0.092815
 C          8.990323   -3.478603    0.099532
 N          8.494013   -4.533253    0.129600
 H          8.443790    3.485791   -0.060484
 H         11.925557   -0.116421    0.017947
 H          6.909200   -2.646695    0.008826
 H          2.262502   -3.207910   -0.021329
 H         -2.262546    3.207973   -0.022092
 O          2.159934    1.713439   -0.020456
 O         -2.159955   -1.713364   -0.015313
 C          1.984754    3.128911   -0.021368
 H          1.448339    3.458831   -0.918546
 H          1.449036    3.460108    0.875747
 H          2.991575    3.546400   -0.022065
 C         -1.984786   -3.128837   -0.014212
 H         -1.448983   -3.460127   -0.911244
 H         -1.448463   -3.458674    0.883049
 H         -2.991611   -3.546318   -0.013596
 F         12.791424    2.305731   -0.024580
 F         10.972674    4.258976   -0.066577
 F        -10.972614   -4.258991   -0.068643
 F        -12.791391   -2.305770   -0.026593
 C          4.908042   -4.115973   -0.015377
 H          5.514015   -4.320456   -0.905351
 H          5.542962   -4.315435    0.854936
 H          4.084247   -4.834224   -0.000209
 C         -4.908080    4.116011   -0.016839
 H         -5.512529    4.320452   -0.907874
 H         -5.544480    4.315518    0.852368
 H         -4.084311    4.834263   -0.000326
        80
T1: Total Energy = -3405.40400582
 C         -5.167430   -1.526231    0.012796
 C         -4.351048   -2.709299    0.019977
 C         -3.002579   -2.422865    0.023116
 C         -2.675848   -1.042889    0.019739
 C         -1.358815   -0.508629    0.020989
 C         -1.067543    0.911373    0.020778
 C          0.227832    1.375837    0.020880
 S         -4.159587   -0.079833    0.014731
 H          0.394111    2.442471    0.020270
 C          5.167497    1.526422    0.012195
 C          4.351129    2.709503    0.018547
 C          3.002655    2.423084    0.021839
 C          2.675911    1.043109    0.019389
 C          1.358875    0.508855    0.020846
 C          1.067603   -0.911146    0.021668
 C         -0.227772   -1.375610    0.021863
 S          4.159640    0.080037    0.015063
 H         -0.394050   -2.442244    0.022038
 C         -6.572234   -1.617770   -0.000418
 C         -7.610651   -0.683955   -0.007713
 C         -7.465039    0.791687    0.020493
 O         -6.427957    1.445816    0.039544
 C         -8.831759    1.357898    0.024484
 C         -9.193433    2.697727    0.051851
 C        -10.550571    2.988149    0.050697
 C        -11.497678    1.957578    0.022404
 C        -11.132691    0.615752   -0.005748
 C         -9.767514    0.309871   -0.004460
 C         -9.033341   -0.984065   -0.031511
 C         -9.655941   -2.230424   -0.078906
 C        -11.072281   -2.398474   -0.093109
 N        -12.222563   -2.590137   -0.105593
 C         -8.977610   -3.483712   -0.125130
 N         -8.487520   -4.541673   -0.166614
 H         -8.452366    3.489548    0.073330
 H        -11.919638   -0.125310   -0.026554
 H         -6.894551   -2.650763   -0.005200
 C          6.572304    1.617911   -0.000922
 C          7.610663    0.684029   -0.007623
 C          7.464894   -0.791592    0.020825
 O          6.427739   -1.445600    0.040087
 C          8.831548   -1.357956    0.024712
 C          9.193075   -2.697824    0.052129
 C         10.550180   -2.988398    0.050819
 C         11.497399   -1.957934    0.022337
 C         11.132559   -0.616069   -0.005834
 C          9.767416   -0.310036   -0.004396
 C          9.033392    0.983988   -0.031340
 C          9.656182    2.230266   -0.078387
 C         11.072549    2.398077   -0.092738
 N         12.222865    2.589532   -0.105358
 C          8.978077    3.483701   -0.123895
 N          8.488236    4.541803   -0.164706
 H          8.451921   -3.489560    0.073759
 H         11.919587    0.124904   -0.026786
 H          6.894664    2.650886   -0.006285
 H          2.255257    3.207060    0.026330
 H         -2.255174   -3.206831    0.028148
 O          2.149764   -1.716338    0.022288
 O         -2.149704    1.716565    0.020535
 C          1.988219   -3.135882    0.022783
 H          1.453841   -3.466212    0.920343
 H          1.454218   -3.466904   -0.874741
 H          2.999034   -3.542431    0.023171
 C         -1.988158    3.136110    0.019982
 H         -1.453957    3.467120    0.917394
 H         -1.453980    3.466450   -0.877690
 H         -2.998973    3.542658    0.019864
 F         12.795017   -2.293117    0.022725
 F         10.983451   -4.256218    0.076702
 F        -10.983980    4.255922    0.076560
 F        -12.795333    2.292616    0.022956
 C          4.897722    4.110395    0.022849
 H          5.513870    4.303333    0.908633
 H          5.529000    4.305392   -0.851431
 H          4.081152    4.837034    0.017099
 C         -4.897631   -4.110191    0.025287
 H         -5.513403   -4.302599    0.911455
 H         -5.529273   -4.305717   -0.848607
 H         -4.081059   -4.836828    0.019649
        80
S1: Total Energy = -3405.38469317
 C         -5.168887   -1.535871    0.041602
 C         -4.362021   -2.712473    0.063988
 C         -3.004928   -2.424844    0.077709
 C         -2.684290   -1.052534    0.068639
 C         -1.354675   -0.511621    0.074346
 C         -1.070032    0.903494    0.076055
 C          0.231356    1.372942    0.076214
 S         -4.158966   -0.090857    0.047230
 H          0.394332    2.440096    0.075145
 C          5.168797    1.535745    0.041922
 C          4.361937    2.712348    0.064514
 C          3.004842    2.424728    0.078182
 C          2.684194    1.052423    0.068885
 C          1.354577    0.511512    0.074460
 C          1.069933   -0.903603    0.076052
 C         -0.231454   -1.373051    0.076103
 S          4.158864    0.090741    0.047311
 H         -0.394429   -2.440204    0.074973
 C         -6.581718   -1.620988    0.006352
 C         -7.612219   -0.687904   -0.017735
 C         -7.461682    0.787185    0.031707
 O         -6.421773    1.436439    0.073790
 C         -8.825769    1.357140    0.026691
 C         -9.183565    2.697208    0.069541
 C        -10.540054    2.992714    0.054457
 C        -11.490026    1.965517   -0.003149
 C        -11.129976    0.623041   -0.047505
 C         -9.765018    0.310603   -0.031480
 C         -9.039648   -0.982388   -0.071436
 C         -9.663304   -2.228219   -0.159217
 C        -11.078781   -2.394034   -0.190253
 N        -12.230029   -2.582099   -0.216627
 C         -8.984457   -3.478362   -0.239101
 N         -8.490058   -4.533450   -0.311117
 H         -8.440260    3.486070    0.112840
 H        -11.918786   -0.115107   -0.090973
 H         -6.905431   -2.653795   -0.004029
 C          6.581629    1.620881    0.006611
 C          7.612180    0.687848   -0.017660
 C          7.461771   -0.787257    0.031843
 O          6.421927   -1.436614    0.073868
 C          8.825906   -1.357099    0.026789
 C          9.183820   -2.697136    0.069647
 C         10.540335   -2.992522    0.054532
 C         11.490217   -1.965243   -0.003130
 C         11.130047   -0.622800   -0.047509
 C          9.765063   -0.310487   -0.031437
 C          9.039587    0.982433   -0.071469
 C          9.663181    2.228274   -0.159481
 C         11.078657    2.394124   -0.190437
 N         12.229916    2.582134   -0.216726
 C          8.984297    3.478374   -0.239753
 N          8.489923    4.533449   -0.312108
 H          8.440582   -3.486059    0.112982
 H         11.918787    0.115424   -0.091029
 H          6.905310    2.653700   -0.003635
 H          2.258709    3.209889    0.095389
 H         -2.258790   -3.210003    0.094786
 O          2.148417   -1.708676    0.077094
 O         -2.148521    1.708562    0.077065
 C          1.991793   -3.130382    0.076263
 H          1.458731   -3.461994    0.973730
 H          1.459823   -3.461184   -0.822142
 H          3.004481   -3.531667    0.076726
 C         -1.991902    3.130269    0.076456
 H         -1.458871    3.461745    0.973991
 H         -1.459903    3.461210   -0.821880
 H         -3.004591    3.531550    0.076944
 F         12.786561   -2.305393   -0.015221
 F         10.969971   -4.261501    0.094352
 F        -10.969575    4.261731    0.094255
 F        -12.786340    2.305781   -0.015204
 C          4.903357    4.115918    0.076475
 H          5.507702    4.309598    0.970299
 H          5.543775    4.316367   -0.789578
 H          4.084026    4.839402    0.063340
 C         -4.903422   -4.116052    0.075694
 H         -5.507813   -4.309898    0.969449
 H         -5.543787   -4.316362   -0.790430
 H         -4.084080   -4.839522    0.062472
