       100
S0: Total Energy = -5309.01141391
 C         -5.242735   -1.271252    0.180498
 C         -4.511695   -2.470041    0.395569
 C         -3.126764   -2.250223    0.422469
 C         -2.743861   -0.920010    0.255264
 C         -1.367906   -0.430198    0.241172
 C         -1.030094    0.950177    0.228078
 C          0.301318    1.350258    0.232275
 S         -4.147351    0.107971    0.095676
 H          0.525127    2.407004    0.212287
 C          5.242729    1.271233    0.180544
 C          4.511684    2.470024    0.395593
 C          3.126753    2.250202    0.422485
 C          2.743856    0.919984    0.255302
 C          1.367902    0.430170    0.241191
 C          1.030092   -0.950205    0.228163
 C         -0.301321   -1.350286    0.232341
 S          4.147351   -0.107998    0.095779
 H         -0.525128   -2.407033    0.212410
 C         -6.631145   -1.274091   -0.099160
 C         -7.576710   -0.274928   -0.266926
 C         -7.396168    1.161927    0.037796
 O         -6.364209    1.752500    0.336152
 C         -8.740494    1.782772   -0.052064
 C         -9.081895    3.101783    0.190898
 C        -10.421510    3.473678    0.059097
 C        -11.381540    2.514166   -0.313092
 C        -11.021532    1.184503   -0.562360
 C         -9.682810    0.813153   -0.430187
 C         -8.977824   -0.480903   -0.630667
 C         -9.570438   -1.624564   -1.140069
 C        -10.963295   -1.718385   -1.441479
 N        -12.093544   -1.844124   -1.696251
 C         -8.866300   -2.823921   -1.467611
 N         -8.351897   -3.824201   -1.772647
 H         -8.327823    3.826808    0.477144
 H        -11.797991    0.487361   -0.844150
 H         -7.005810   -2.287483   -0.195426
 C          6.631138    1.274073   -0.099125
 C          7.576710    0.274913   -0.266869
 C          7.396184   -1.161937    0.037883
 O          6.364238   -1.752509    0.336285
 C          8.740521   -1.782764   -0.051940
 C          9.081940   -3.101760    0.191077
 C         10.421561   -3.473641    0.059295
 C         11.381578   -2.514130   -0.312931
 C         11.021552   -1.184483   -0.562253
 C          9.682824   -0.813145   -0.430098
 C          8.977819    0.480893   -0.630625
 C          9.570413    1.624549   -1.140060
 C         10.963268    1.718390   -1.441475
 N         12.093514    1.844149   -1.696252
 C          8.866254    2.823888   -1.467625
 N          8.351823    3.824145   -1.772691
 H          8.327877   -3.826785    0.477348
 H         11.798002   -0.487341   -0.844066
 H          7.005794    2.287465   -0.195426
 H          2.427921    3.055312    0.610774
 H         -2.427938   -3.055333    0.610781
 O          2.070439   -1.820974    0.208738
 O         -2.070440    1.820945    0.208574
 C          1.824150   -3.225946    0.209587
 H          1.277451   -3.528935    1.109979
 H          1.266951   -3.528526   -0.684499
 H          2.808532   -3.693802    0.203554
 C         -1.824153    3.225918    0.209386
 H         -1.277475    3.528934    1.109782
 H         -1.266933    3.528471   -0.684696
 H         -2.808535    3.693773    0.203315
 C         -5.099814   -3.808933    0.597488
 C         -6.163538   -4.021759    1.491694
 C         -4.567423   -4.923862   -0.074975
 C         -6.683456   -5.299266    1.688847
 H         -6.562366   -3.187313    2.061165
 C         -5.095524   -6.194996    0.124757
 H         -3.749465   -4.784746   -0.776443
 C         -6.167118   -6.407524    1.005452
 H         -7.499872   -5.437942    2.393336
 H         -4.673799   -7.038295   -0.416897
 C          5.099793    3.808925    0.597486
 C          4.567405    4.923832   -0.075012
 C          6.163500    4.021782    1.491708
 C          5.095493    6.194976    0.124697
 H          3.749459    4.784693   -0.776490
 C          6.683403    5.299296    1.688838
 H          6.562322    3.187355    2.061210
 C          6.167069    6.407534    1.005404
 H          4.673770    7.038258   -0.416984
 H          7.499804    5.437998    2.393341
 C         -6.756367   -7.784491    1.192389
 H         -5.987763   -8.562006    1.127520
 H         -7.258185   -7.877732    2.160710
 H         -7.501566   -7.999183    0.415160
 C          6.756315    7.784506    1.192317
 H          7.501800    7.999031    0.415316
 H          5.987771    8.562044    1.127051
 H          7.257802    7.877883    2.160798
Cl        -13.062560    2.949240   -0.477248
Cl        -10.866691    5.130787    0.364467
Cl         13.062605   -2.949186   -0.477064
Cl         10.866765   -5.130731    0.364732
       100
T1: Total Energy = -5308.96399780
 C          5.234765   -1.284873   -0.137675
 C          4.476148   -2.502863   -0.267693
 C          3.109795   -2.276203   -0.263727
 C          2.721790   -0.920455   -0.168634
 C          1.378801   -0.446196   -0.157112
 C          1.025174    0.958101   -0.146807
 C         -0.291050    1.363978   -0.147841
 S          4.157900    0.109447   -0.113372
 H         -0.506413    2.421969   -0.133892
 C         -5.234768    1.284880   -0.137751
 C         -4.476148    2.502871   -0.267724
 C         -3.109795    2.276208   -0.263746
 C         -2.721794    0.920457   -0.168677
 C         -1.378806    0.446197   -0.157138
 C         -1.025179   -0.958100   -0.146844
 C          0.291045   -1.363977   -0.147852
 S         -4.157908   -0.109443   -0.113465
 H          0.506408   -2.421968   -0.133911
 C          6.624342   -1.292619    0.088575
 C          7.585873   -0.283503    0.192151
 C          7.402528    1.143433   -0.167858
 O          6.367015    1.716817   -0.486971
 C          8.742611    1.773328   -0.099513
 C          9.078842    3.084762   -0.381503
 C         10.418201    3.465912   -0.258954
 C         11.378213    2.521596    0.144565
 C         11.022102    1.197001    0.433463
 C          9.686183    0.816858    0.308986
 C          8.982403   -0.472759    0.544640
 C          9.587402   -1.612117    1.069645
 C         10.984291   -1.699084    1.343787
 N         12.120466   -1.819794    1.577373
 C          8.894331   -2.803031    1.439291
 N          8.392298   -3.799102    1.779623
 H          8.322890    3.798480   -0.690373
 H         11.800560    0.512647    0.739791
 H          6.999930   -2.302467    0.205448
 C         -6.624346    1.292623    0.088497
 C         -7.585876    0.283504    0.192043
 C         -7.402534   -1.143417   -0.168024
 O         -6.367027   -1.716785   -0.487186
 C         -8.742616   -1.773318   -0.099680
 C         -9.078850   -3.084741   -0.381715
 C        -10.418206   -3.465898   -0.259153
 C        -11.378211   -2.521599    0.144422
 C        -11.022096   -1.197015    0.433367
 C         -9.686181   -0.816865    0.308875
 C         -8.982400    0.472743    0.544568
 C         -9.587394    1.612079    1.069625
 C        -10.984277    1.699025    1.343798
 N        -12.120449    1.819708    1.577413
 C         -8.894325    2.802990    1.439284
 N         -8.392296    3.799060    1.779624
 H         -8.322903   -3.798446   -0.690626
 H        -11.800549   -0.512675    0.739741
 H         -6.999932    2.302468    0.205401
 H         -2.401847    3.087332   -0.376370
 H          2.401850   -3.087325   -0.376383
 O         -2.069788   -1.810825   -0.138251
 O          2.069784    1.810825   -0.138178
 C         -1.845587   -3.222198   -0.137299
 H         -1.297430   -3.528813   -1.034814
 H         -1.297570   -3.527930    0.760644
 H         -2.837467   -3.672874   -0.137214
 C          1.845584    3.222198   -0.137205
 H          1.297448    3.528830   -1.034727
 H          1.297547    3.527915    0.760731
 H          2.837465    3.672873   -0.137088
 C          5.054646   -3.855796   -0.404717
 C          6.070243   -4.133985   -1.336392
 C          4.551601   -4.920510    0.363049
 C          6.567147   -5.426793   -1.482521
 H          6.451337   -3.338993   -1.970924
 C          5.056288   -6.208890    0.212584
 H          3.773847   -4.729375    1.097335
 C          6.077112   -6.486642   -0.707623
 H          7.345806   -5.616903   -2.217250
 H          4.656581   -7.012583    0.826309
 C         -5.054644    3.855808   -0.404718
 C         -4.551596    4.920507    0.363067
 C         -6.070242    4.134015   -1.336387
 C         -5.056281    6.208891    0.212626
 H         -3.773842    4.729357    1.097349
 C         -6.567143    5.426827   -1.482493
 H         -6.451339    3.339036   -1.970932
 C         -6.077104    6.486662   -0.707577
 H         -4.656572    7.012572    0.826365
 H         -7.345801    5.616952   -2.217219
 C          6.647619   -7.877759   -0.841081
 H          5.901910   -8.642208   -0.599353
 H          7.014937   -8.064759   -1.855446
 H          7.494182   -8.020227   -0.156552
 C         -6.647607    7.877783   -0.841012
 H         -7.494191    8.020231   -0.156506
 H         -5.901905    8.642225   -0.599240
 H         -7.014894    8.064811   -1.855383
Cl         13.057911    2.965745    0.301380
Cl         10.857746    5.115272   -0.615208
Cl        -13.057906   -2.965757    0.301256
Cl        -10.857756   -5.115245   -0.615464
       100
S1: Total Energy = -5308.94586450
 C          5.238154   -1.280587   -0.203161
 C          4.496332   -2.485631   -0.413527
 C          3.120786   -2.261626   -0.439075
 C          2.732845   -0.919650   -0.288690
 C          1.376428   -0.444359   -0.282587
 C          1.024091    0.955042   -0.273416
 C         -0.299596    1.360660   -0.274576
 S          4.155215    0.107769   -0.143476
 H         -0.516730    2.418223   -0.254021
 C         -5.238157    1.280552   -0.203349
 C         -4.496314    2.485595   -0.413660
 C         -3.120769    2.261577   -0.439158
 C         -2.732848    0.919591   -0.288812
 C         -1.376434    0.444294   -0.282645
 C         -1.024096   -0.955109   -0.273531
 C          0.299591   -1.360727   -0.274630
 S         -4.155237   -0.107823   -0.143767
 H          0.516723   -2.418290   -0.254114
 C          6.626191   -1.290251    0.075824
 C          7.575924   -0.286515    0.241310
 C          7.395913    1.151048   -0.075930
 O          6.365947    1.730998   -0.402900
 C          8.730482    1.781832    0.049032
 C          9.068668    3.102527   -0.180820
 C         10.402829    3.484847   -0.008015
 C         11.355032    2.531046    0.392942
 C         10.997736    1.196801    0.629392
 C          9.666670    0.814041    0.454211
 C          8.967076   -0.482204    0.628444
 C          9.561566   -1.638831    1.131283
 C         10.950222   -1.732363    1.439343
 N         12.080786   -1.857943    1.698858
 C          8.862031   -2.842143    1.440452
 N          8.350412   -3.849958    1.730345
 H          8.318489    3.823171   -0.487696
 H         11.769969    0.505775    0.936507
 H          6.997401   -2.303189    0.181730
 C         -6.626184    1.290226    0.075690
 C         -7.575939    0.286501    0.241146
 C         -7.395999   -1.151040   -0.076239
 O         -6.366078   -1.730995   -0.403340
 C         -8.730571   -1.781801    0.048805
 C         -9.068814   -3.102467   -0.181129
 C        -10.402971   -3.484763   -0.008241
 C        -11.355114   -2.530967    0.392870
 C        -10.997759   -1.196751    0.629400
 C         -9.666695   -0.814018    0.454146
 C         -8.967052    0.482195    0.628417
 C         -9.561471    1.638794    1.131402
 C        -10.950088    1.732312    1.439642
 N        -12.080621    1.857862    1.699308
 C         -8.861897    2.842086    1.440557
 N         -8.350230    3.849868    1.730480
 H         -8.318682   -3.823105   -0.488132
 H        -11.769947   -0.505728    0.936633
 H         -6.997363    2.303163    0.181705
 H         -2.419676    3.067026   -0.618331
 H          2.419711   -3.067074   -0.618320
 O         -2.062067   -1.810384   -0.264600
 O          2.062065    1.810313   -0.264376
 C         -1.838313   -3.223578   -0.254578
 H         -1.290110   -3.534127   -1.150290
 H         -1.291601   -3.522549    0.645993
 H         -2.830938   -3.672018   -0.252594
 C          1.838317    3.223507   -0.254287
 H          1.290166    3.534110   -1.150012
 H          1.291557    3.522430    0.646270
 H          2.830945    3.671942   -0.252221
 C          5.082101   -3.827578   -0.605522
 C          6.142434   -4.049072   -1.502007
 C          4.547651   -4.936963    0.073395
 C          6.653035   -5.329883   -1.698398
 H          6.548231   -3.217799   -2.071254
 C          5.065720   -6.212807   -0.126947
 H          3.734914   -4.791038    0.779690
 C          6.131398   -6.434199   -1.011495
 H          7.467151   -5.474966   -2.404329
 H          4.641162   -7.051947    0.418919
 C         -5.082053    3.827563   -0.605610
 C         -4.547622    4.936898    0.073400
 C         -6.142320    4.049130   -1.502157
 C         -5.065654    6.212764   -0.126900
 H         -3.734933    4.790918    0.779739
 C         -6.652881    5.329963   -1.698509
 H         -6.548090    3.217901   -2.071486
 C         -6.131269    6.434228   -1.011505
 H         -4.641115    7.051864    0.419043
 H         -7.466944    5.475105   -2.404489
 C          6.713633   -7.814228   -1.197946
 H          5.953849   -8.591650   -1.065877
 H          7.155916   -7.931552   -2.192540
 H          7.506839   -8.006053   -0.463387
 C         -6.713464    7.814280   -1.197916
 H         -7.506733    8.006069   -0.463416
 H         -5.953679    8.591681   -1.065726
 H         -7.155656    7.931679   -2.192542
Cl         13.027487    2.976951    0.612095
Cl         10.844683    5.146300   -0.298937
Cl        -13.027563   -2.976841    0.612126
Cl        -10.844896   -5.146181   -0.299259
