       106
S0: Total Energy = -4890.54189063
 S          5.959155   -0.095298   -0.016497
 S          1.733008   -1.379979    0.010407
 F         12.869241    4.099764   -0.047142
 F         14.652355    2.114703   -0.108025
 O          8.270095    1.357225   -0.025400
 N         14.008598   -2.766317   -0.188751
 N         10.209803   -4.638545   -0.168928
 C         11.056552    2.569703   -0.046125
 H         10.327231    3.372253   -0.021422
 C         12.416822    2.839609   -0.061959
 C         13.351089    1.795612   -0.094027
 C         12.967458    0.460550   -0.111289
 H         13.742935   -0.292502   -0.135844
 C         11.597046    0.174242   -0.095539
 C         10.674825    1.234437   -0.063336
 C          9.298913    0.689140   -0.051901
 C          9.423747   -0.783645   -0.077736
 C         10.849150   -1.110714   -0.106848
 C         11.448203   -2.360636   -0.141037
 C         12.862636   -2.555152   -0.166928
 C         10.738606   -3.599731   -0.155577
 C          8.371968   -1.682070   -0.072214
 H          8.647641   -2.730660   -0.090010
 C          6.963553   -1.549250   -0.047806
 C          6.140063   -2.688643   -0.048753
 H          6.558231   -3.689772   -0.066264
 C          4.774949   -2.419475   -0.025557
 C          4.492443   -1.050170   -0.005791
 C          3.202197   -0.424458    0.019901
 C          2.895185    0.924321    0.057100
 H          3.646748    1.706279    0.072822
 C          1.513972    1.211929    0.078134
 C          0.719786    0.057281    0.055906
 C          1.022311    2.616387    0.124494
 C          0.858560    3.355641   -1.064359
 C          0.446856    4.694401   -1.022671
 H          0.314033    5.267142   -1.931925
 C          0.211075    5.289404    0.215542
 C          0.378530    4.590765    1.410022
 H          0.193493    5.084574    2.355780
 C          0.790232    3.252384    1.360876
 S         -5.959165    0.095282   -0.016573
 S         -1.733019    1.379957    0.010396
 F        -12.869275   -4.099744   -0.047393
 F        -14.652381   -2.114664   -0.107910
 O         -8.270106   -1.357232   -0.025716
 N        -14.008599    2.766342   -0.188479
 N        -10.209796    4.638554   -0.169018
 C        -11.056574   -2.569695   -0.046393
 H        -10.327255   -3.372251   -0.021835
 C        -12.416847   -2.839591   -0.062131
 C        -13.351111   -1.795583   -0.094012
 C        -12.967472   -0.460522   -0.111188
 H        -13.742946    0.292538   -0.135594
 C        -11.597056   -0.174226   -0.095539
 C        -10.674840   -1.234430   -0.063513
 C         -9.298924   -0.689142   -0.052123
 C         -9.423753    0.783648   -0.077762
 C        -10.849155    1.110725   -0.106811
 C        -11.448201    2.360649   -0.140957
 C        -12.862635    2.555174   -0.166740
 C        -10.738596    3.599740   -0.155587
 C         -8.371973    1.682069   -0.072090
 H         -8.647644    2.730663   -0.089723
 C         -6.963559    1.549241   -0.047690
 C         -6.140067    2.688633   -0.048419
 H         -6.558232    3.689766   -0.065779
 C         -4.774954    2.419459   -0.025202
 C         -4.492452    1.050151   -0.005638
 C         -3.202206    0.424436    0.020016
 C         -2.895192   -0.924341    0.057266
 H         -3.646755   -1.706298    0.073067
 C         -1.513979   -1.211947    0.078260
 C         -0.719794   -0.057300    0.055943
 C         -1.022301   -2.616397    0.124693
 C         -0.790147   -3.252296    1.361113
 C         -0.378416   -4.590666    1.410342
 H         -0.193309   -5.084396    2.356127
 C         -0.211011   -5.289392    0.215907
 C         -0.446869   -4.694488   -1.022340
 H         -0.314088   -5.267301   -1.931555
 C         -0.858598   -3.355740   -1.064110
 H         -4.007921    3.185752   -0.021448
 H          4.007918   -3.185771   -0.021960
 H         -0.107673    6.327625    0.250725
 H          0.107760   -6.327605    0.251147
 O          0.987250    2.474458    2.460648
 O          1.117978    2.673205   -2.213749
 O         -0.987123   -2.474289    2.460836
 O         -1.118090   -2.673397   -2.213538
 C          0.759910    3.043682    3.746296
 H         -0.281348    3.367632    3.861689
 H          0.974043    2.249230    4.462506
 H          1.429506    3.892132    3.932186
 C          0.955096    3.348071   -3.457523
 H          1.209964    2.616426   -4.225433
 H         -0.080358    3.680092   -3.599487
 H          1.629167    4.209499   -3.536824
 C         -0.759734   -3.043419    3.746519
 H         -0.973876   -2.248925    4.462679
 H         -1.429302   -3.891875    3.932481
 H          0.281536   -3.367329    3.861913
 C         -0.955233   -3.348348   -3.457269
 H         -1.210155   -2.616768   -4.225223
 H          0.080227   -3.680345   -3.599247
 H         -1.629278   -4.209806   -3.536481
       106
T1: Total Energy = -4890.50334982
 S          5.939996   -0.115486   -0.004121
 S          1.709131   -1.425833    0.017840
 F         12.824095    4.109624   -0.017387
 F         14.614656    2.127285   -0.050204
 O          8.234681    1.343991   -0.007278
 N         13.987403   -2.757001   -0.098682
 N         10.203145   -4.649227   -0.090000
 C         11.016741    2.570802   -0.017759
 H         10.284560    3.371057   -0.004390
 C         12.377026    2.846253   -0.025876
 C         13.313341    1.805620   -0.043155
 C         12.934060    0.467722   -0.052986
 H         13.712411   -0.282672   -0.066185
 C         11.565594    0.176505   -0.044972
 C         10.640314    1.234749   -0.027469
 C          9.267865    0.681372   -0.021540
 C          9.399401   -0.792113   -0.035346
 C         10.819434   -1.110601   -0.051664
 C         11.425636   -2.363635   -0.071809
 C         12.839583   -2.551405   -0.086505
 C         10.723874   -3.605506   -0.081316
 C          8.345426   -1.699935   -0.031071
 H          8.626486   -2.746630   -0.039112
 C          6.941253   -1.567826   -0.018236
 C          6.112397   -2.720267   -0.016944
 H          6.538626   -3.717778   -0.024589
 C          4.757698   -2.459378   -0.005820
 C          4.459126   -1.079784    0.002052
 C          3.190022   -0.474617    0.013104
 C          2.885307    0.903834    0.023452
 H          3.652046    1.670489    0.024744
 C          1.536660    1.204730    0.034694
 C          0.699062    0.036820    0.031428
 C          1.051473    2.610963    0.054294
 C          0.869821    3.320069   -1.150066
 C          0.464566    4.660891   -1.131718
 H          0.317024    5.212704   -2.051489
 C          0.253233    5.285101    0.096689
 C          0.437871    4.614603    1.304859
 H          0.270064    5.131069    2.241631
 C          0.843161    3.273983    1.280529
 S         -5.939996    0.115485   -0.004007
 S         -1.709131    1.425835    0.017843
 F        -12.824109   -4.109617   -0.017087
 F        -14.614665   -2.127275   -0.050045
 O         -8.234687   -1.343995   -0.007098
 N        -13.987406    2.756947   -0.099064
 N        -10.203104    4.649208   -0.089963
 C        -11.016751   -2.570800   -0.017541
 H        -10.284571   -3.371056   -0.004117
 C        -12.377036   -2.846248   -0.025653
 C        -13.313349   -1.805614   -0.043006
 C        -12.934064   -0.467717   -0.052915
 H        -13.712412    0.282678   -0.066165
 C        -11.565598   -0.176504   -0.044907
 C        -10.640320   -1.234749   -0.027331
 C         -9.267869   -0.681374   -0.021427
 C         -9.399403    0.792110   -0.035304
 C        -10.819434    1.110600   -0.051664
 C        -11.425634    2.363634   -0.071896
 C        -12.839579    2.551407   -0.086615
 C        -10.723867    3.605503   -0.081479
 C         -8.345427    1.699932   -0.031066
 H         -8.626486    2.746627   -0.039181
 C         -6.941253    1.567824   -0.018201
 C         -6.112398    2.720266   -0.016961
 H         -6.538628    3.717776   -0.024668
 C         -4.757699    2.459378   -0.005815
 C         -4.459126    1.079784    0.002121
 C         -3.190022    0.474618    0.013174
 C         -2.885306   -0.903832    0.023564
 H         -3.652046   -1.670487    0.024894
 C         -1.536659   -1.204727    0.034776
 C         -0.699061   -0.036818    0.031448
 C         -1.051472   -2.610960    0.054402
 C         -0.843138   -3.273949    1.280650
 C         -0.437846   -4.614567    1.305008
 H         -0.270023   -5.131009    2.241790
 C         -0.253228   -5.285097    0.096852
 C         -0.464583   -4.660918   -1.131567
 H         -0.317056   -5.212755   -2.051326
 C         -0.869839   -3.320098   -1.149943
 H         -3.993417    3.228951   -0.003478
 H          3.993415   -3.228950   -0.003432
 H         -0.060726    6.325138    0.112899
 H          0.060733   -6.325132    0.113084
 O          1.054339    2.517436    2.391554
 O          1.104047    2.606530   -2.284718
 O         -1.054298   -2.517373    2.391659
 O         -1.104086   -2.606588   -2.284610
 C          0.849641    3.113260    3.670084
 H         -0.188162    3.444350    3.794107
 H          1.071262    2.331758    4.397971
 H          1.526564    3.961326    3.827680
 C          0.924634    3.250664   -3.543577
 H          1.161099    2.497280   -4.296018
 H         -0.110615    3.586677   -3.675788
 H          1.604057    4.103958   -3.655432
 C         -0.849577   -3.113163    3.670202
 H         -1.071184   -2.331642    4.398072
 H         -1.526496   -3.961225    3.827832
 H          0.188229   -3.444249    3.794215
 C         -0.924691   -3.250752   -3.543455
 H         -1.161170   -2.497388   -4.295911
 H          0.110558   -3.586765   -3.675674
 H         -1.604113   -4.104051   -3.655278
       106
S1: Total Energy = -4890.48495099
 S          5.920813   -0.128213   -0.048681
 S          1.699815   -1.414420    0.263950
 F         12.785343    4.091913   -0.597673
 F         14.560076    2.110275   -0.845158
 O          8.210551    1.325916   -0.220387
 N         13.924758   -2.776732   -0.932516
 N         10.151231   -4.664389   -0.593950
 C         10.982276    2.552754   -0.463353
 H         10.256438    3.352575   -0.362431
 C         12.336661    2.828740   -0.593186
 C         13.264614    1.788073   -0.722677
 C         12.884037    0.450760   -0.727674
 H         13.655992   -0.299160   -0.831749
 C         11.520748    0.157570   -0.597829
 C         10.603386    1.217659   -0.468944
 C          9.237210    0.665552   -0.348203
 C          9.363274   -0.809351   -0.412933
 C         10.779479   -1.126314   -0.563744
 C         11.377761   -2.382294   -0.660304
 C         12.782801   -2.571643   -0.809569
 C         10.674975   -3.621754   -0.620855
 C          8.314415   -1.712507   -0.346813
 H          8.587725   -2.759178   -0.415649
 C          6.909684   -1.580592   -0.205998
 C          6.084140   -2.724686   -0.174982
 H          6.499759   -3.723259   -0.257165
 C          4.729333   -2.458032   -0.032084
 C          4.447324   -1.086850    0.055411
 C          3.176871   -0.467666    0.203499
 C          2.889381    0.894673    0.335215
 H          3.657266    1.659703    0.341229
 C          1.535403    1.195403    0.485723
 C          0.706376    0.038242    0.448946
 C          1.065705    2.589162    0.688035
 C          1.127617    3.523607   -0.368010
 C          0.734730    4.853086   -0.166905
 H          0.768726    5.573396   -0.974541
 C          0.296057    5.244232    1.096874
 C          0.241525    4.350921    2.165660
 H         -0.094082    4.690250    3.137486
 C          0.632625    3.022492    1.959938
 S         -5.920867    0.128355   -0.048896
 S         -1.699874    1.414519    0.263936
 F        -12.784832   -4.092190   -0.597354
 F        -14.559785   -2.110740   -0.844764
 O         -8.210275   -1.325710   -0.220583
 N        -13.924924    2.776576   -0.932495
 N        -10.151703    4.664422   -0.594309
 C        -10.981904   -2.552847   -0.463286
 H        -10.255978   -3.352591   -0.362394
 C        -12.336274   -2.828972   -0.592975
 C        -13.264342   -1.788404   -0.722430
 C        -12.883898   -0.451053   -0.727532
 H        -13.655937    0.298785   -0.831563
 C        -11.520626   -0.157723   -0.597835
 C        -10.603146   -1.217715   -0.468986
 C         -9.237011   -0.665469   -0.348417
 C         -9.363239    0.809418   -0.413123
 C        -10.779485    1.126240   -0.563876
 C        -11.377915    2.382149   -0.660458
 C        -12.782990    2.571319   -0.809616
 C        -10.675284    3.621704   -0.621131
 C         -8.314443    1.712643   -0.347021
 H         -8.587792    2.759301   -0.415863
 C         -6.909715    1.580748   -0.206202
 C         -6.084167    2.724836   -0.175134
 H         -6.499773    3.723414   -0.257311
 C         -4.729367    2.458162   -0.032192
 C         -4.447374    1.086974    0.055279
 C         -3.176931    0.467776    0.203390
 C         -2.889452   -0.894570    0.335064
 H         -3.657341   -1.659597    0.341016
 C         -1.535481   -1.195313    0.485609
 C         -0.706448   -0.038153    0.448913
 C         -1.065796   -2.589085    0.687861
 C         -0.632800   -3.022499    1.959763
 C         -0.241718   -4.350943    2.165424
 H          0.093825   -4.690337    3.137250
 C         -0.296180   -5.244183    1.096575
 C         -0.734769   -4.852952   -0.167208
 H         -0.768714   -5.573210   -0.974893
 C         -1.127638   -3.523459   -0.368251
 H         -3.964824    3.226288    0.010748
 H          3.964798   -3.226168    0.010818
 H         -0.007544    6.275430    1.254560
 H          0.007407   -6.275392    1.254213
 O          0.633196    2.068313    2.928873
 O          1.568976    3.031086   -1.556569
 O         -0.633432   -2.068383    2.928761
 O         -1.568916   -3.030856   -1.556806
 C          0.188110    2.422204    4.235833
 H         -0.854924    2.759184    4.224471
 H          0.269460    1.511271    4.830355
 H          0.821587    3.201988    4.674876
 C          1.650910    3.913480   -2.673409
 H          2.029074    3.308731   -3.498518
 H          0.665246    4.315130   -2.936497
 H          2.343991    4.740206   -2.478517
 C         -0.188443   -2.422364    4.235729
 H         -0.269834   -1.511472    4.830308
 H         -0.821953   -3.202177    4.674673
 H          0.854592   -2.759345    4.224420
 C         -1.650776   -3.913174   -2.673712
 H         -2.028881   -3.308367   -3.498806
 H         -0.665097   -4.314812   -2.936760
 H         -2.343876   -4.739910   -2.478924
