        94
S0: Total Energy = -4236.40999099
 C          9.196988   -0.922704   -0.001738
 C          8.515445   -2.161255    0.017960
 C          7.133046   -2.039326    0.011085
 C          6.726030   -0.695959   -0.014160
 C          5.298938   -0.653777   -0.017094
 C          4.798116   -1.951773    0.005362
 C          3.391968   -1.999237    0.003378
 C          2.809542   -0.735814   -0.012888
 S          8.030705    0.427426   -0.030294
 S          4.045376    0.535510   -0.044209
 C          5.928294   -2.978525    0.026519
 H          9.062674   -3.098352    0.037667
 H          2.807249   -2.907764    0.028787
 C         -9.196989    0.922705    0.001733
 C         -8.515447    2.161257   -0.017984
 C         -7.133048    2.039328   -0.011124
 C         -6.726031    0.695962    0.014125
 C         -5.298938    0.653781    0.017045
 C         -4.798118    1.951777   -0.005425
 C         -3.391970    1.999242   -0.003452
 C         -2.809543    0.735820    0.012819
 S         -8.030705   -0.427424    0.030278
 S         -4.045376   -0.535505    0.044154
 C         -5.928297    2.978528   -0.026578
 H         -9.062677    3.098353   -0.037689
 H         -2.807252    2.907770   -0.028872
 C          1.399931   -0.368960   -0.000462
 C          0.365502   -1.286092   -0.274920
 C         -0.972239   -0.945286   -0.279172
 C         -1.399932    0.368967    0.000389
 C         -0.365503    1.286099    0.274846
 C          0.972238    0.945293    0.279098
 H         -1.685518   -1.723568   -0.527850
 H          1.685517    1.723575    0.527776
 C         10.609649   -0.882495    0.006711
 C         11.548778    0.134525   -0.004338
 C         11.250586    1.581749   -0.038769
 O         10.144991    2.116812   -0.058440
 C         12.550130    2.288950   -0.046376
 C         12.778726    3.657421   -0.076341
 C         14.102980    4.102779   -0.077641
 C         15.153642    3.178209   -0.049171
 C         14.917462    1.799135   -0.018738
 C         13.593789    1.345581   -0.017333
 C         13.003079   -0.020153    0.011837
 C         13.744147   -1.192402    0.050451
 C         15.171866   -1.226356    0.060844
 N         16.333940   -1.315853    0.070579
 C         13.182189   -2.504713    0.086131
 N         12.773647   -3.596327    0.116934
 H         11.009094   -1.890479    0.026897
 H         11.941849    4.348811   -0.097840
 H         15.759307    1.120873    0.002665
 C        -10.609650    0.882495   -0.006693
 C        -11.548778   -0.134527    0.004377
 C        -11.250582   -1.581750    0.038814
 O        -10.144985   -2.116811    0.058474
 C        -12.550124   -2.288954    0.046443
 C        -12.778717   -3.657425    0.076420
 C        -14.102969   -4.102786    0.077741
 C        -15.153634   -3.178218    0.049280
 C        -14.917457   -1.799144    0.018836
 C        -13.593786   -1.345587    0.017410
 C        -13.003079    0.020148   -0.011777
 C        -13.744150    1.192395   -0.050386
 C        -15.171869    1.226345   -0.060759
 N        -16.333943    1.315840   -0.070479
 C        -13.182196    2.504707   -0.086080
 N        -12.773658    3.596322   -0.116894
 H        -11.009097    1.890478   -0.026880
 H        -11.941837   -4.348813    0.097911
 H        -15.759304   -1.120884   -0.002559
 C          5.893438   -3.884274   -1.225493
 H          6.750209   -4.566773   -1.225539
 H          4.979189   -4.487757   -1.233456
 C          5.890419   -3.837605    1.310786
 H          6.747827   -4.518666    1.338720
 H          4.976904   -4.441624    1.337919
 C         -5.893428    3.884287    1.225426
 H         -6.750199    4.566786    1.225475
 H         -4.979180    4.487771    1.233375
 C         -5.890436    3.837598   -1.310853
 H         -6.747846    4.518657   -1.338783
 H         -4.976923    4.441618   -1.338000
 F         -0.673860    2.569085    0.571435
 F          0.673860   -2.569077   -0.571509
 H          5.917323   -3.211612    2.207965
 H          5.923800   -3.291643   -2.144920
 H         -5.923781    3.291663    2.144858
 H         -5.917349    3.211597   -2.208026
 H         16.179626    3.534421   -0.050507
 H         14.320651    5.166495   -0.100617
 H        -14.320638   -5.166503    0.100727
 H        -16.179618   -3.534432    0.050633
        94
T1: Total Energy = -4236.36692941
 C          9.171547    0.920333    0.004737
 C          8.481815    2.167598    0.008474
 C          7.109549    2.043744    0.008159
 C          6.692574    0.688237    0.003935
 C          5.290866    0.646556    0.003544
 C          4.774262    1.965460    0.007645
 C          3.392055    2.013725    0.007453
 C          2.788127    0.732246    0.003051
 S          8.012017   -0.437868    0.001062
 S          4.038156   -0.548573   -0.000782
 C          5.908872    2.988439    0.011145
 H          9.030202    3.103762    0.010928
 H          2.807751    2.922005    0.010351
 C         -9.171550   -0.920346   -0.004703
 C         -8.481818   -2.167611   -0.008537
 C         -7.109552   -2.043756   -0.008456
 C         -6.692578   -0.688249   -0.004315
 C         -5.290869   -0.646567   -0.004138
 C         -4.774265   -1.965471   -0.008291
 C         -3.392058   -2.013735   -0.008249
 C         -2.788130   -0.732256   -0.003916
 S         -8.012020    0.437856   -0.001236
 S         -4.038159    0.548563    0.000022
 C         -5.908875   -2.988451   -0.011632
 H         -9.030205   -3.103775   -0.010886
 H         -2.807754   -2.922015   -0.011190
 C          1.409861    0.375210    0.001359
 C          0.345716    1.324963    0.004089
 C         -0.979494    0.984255    0.002380
 C         -1.409864   -0.375220   -0.002298
 C         -0.345719   -1.324973   -0.005050
 C          0.979492   -0.984265   -0.003340
 H         -1.700092    1.794402    0.004758
 H          1.700089   -1.794413   -0.005719
 C         10.579482    0.885879    0.003235
 C         11.524527   -0.136231    0.000110
 C         11.228517   -1.586787    0.002399
 O         10.123098   -2.122458    0.003251
 C         12.528100   -2.292742    0.003828
 C         12.759454   -3.660474    0.007081
 C         14.085477   -4.103273    0.008400
 C         15.132463   -3.175264    0.006394
 C         14.892660   -1.795296    0.002869
 C         13.568691   -1.345226    0.001534
 C         12.972019    0.019057   -0.002570
 C         13.712597    1.198326   -0.009835
 C         15.138955    1.234325   -0.010735
 N         16.301535    1.325306   -0.011606
 C         13.151328    2.509971   -0.018556
 N         12.746319    3.603947   -0.026167
 H         10.979421    1.893228    0.005215
 H         11.924135   -4.354159    0.008595
 H         15.732895   -1.114689    0.001438
 C        -10.579484   -0.885890   -0.002943
 C        -11.524523    0.136225    0.000322
 C        -11.228499    1.586779   -0.002131
 O        -10.123075    2.122437   -0.003236
 C        -12.528075    2.292747   -0.003370
 C        -12.759417    3.660480   -0.006692
 C        -14.085436    4.103291   -0.007794
 C        -15.132431    3.175292   -0.005511
 C        -14.892640    1.795322   -0.001919
 C        -13.568675    1.345240   -0.000802
 C        -12.972016   -0.019048    0.003305
 C        -13.712613   -1.198304    0.010835
 C        -15.138971   -1.234274    0.012014
 N        -16.301554   -1.325223    0.013117
 C        -13.151370   -2.509959    0.019607
 N        -12.746392   -3.603946    0.027290
 H        -10.979426   -1.893238   -0.004819
 H        -11.924092    4.354157   -0.008422
 H        -15.732880    1.114722   -0.000270
 C          5.877725    3.866282    1.282624
 H          6.740638    4.540612    1.299472
 H          4.968556    4.477013    1.300470
 C          5.877890    3.874986   -1.254280
 H          6.740756    4.549492   -1.266348
 H          4.968677    4.485776   -1.268131
 C         -5.877925   -3.866271   -1.283131
 H         -6.740846   -4.540595   -1.299861
 H         -4.968763   -4.477008   -1.301127
 C         -5.877697   -3.875019    1.253772
 H         -6.740555   -4.549533    1.265959
 H         -4.968477   -4.485802    1.267476
 F         -0.642821   -2.643498   -0.009632
 F          0.642818    2.643488    0.008659
 H          5.900921    3.268823   -2.165002
 H          5.900541    3.253890    2.189179
 H         -5.900875   -3.253863   -2.189672
 H         -5.900595   -3.268872    2.164509
 H         16.159687   -3.528084    0.007573
 H         14.305787   -5.166638    0.011023
 H        -14.305737    5.166658   -0.010463
 H        -16.159652    3.528121   -0.006522
        94
S1: Total Energy = -4236.34896675
 C          9.171347    0.921397    0.008315
 C          8.487958    2.164462    0.063872
 C          7.111131    2.040959    0.113462
 C          6.696866    0.690626    0.097958
 C          5.287956    0.650274    0.144717
 C          4.777431    1.964163    0.188870
 C          3.390992    2.012826    0.225181
 C          2.790031    0.734885    0.211600
 S          8.010569   -0.434920    0.022979
 S          4.037197   -0.542557    0.153467
 C          5.912804    2.985927    0.179259
 H          9.035989    3.100859    0.063425
 H          2.808195    2.921400    0.260080
 C         -9.171342   -0.921413    0.008372
 C         -8.487932   -2.164465    0.063968
 C         -7.111107   -2.040936    0.113536
 C         -6.696865   -0.690596    0.097984
 C         -5.287955   -0.650219    0.144738
 C         -4.777408   -1.964098    0.188925
 C         -3.390969   -2.012737    0.225226
 C         -2.790029   -0.734787    0.211604
 S         -8.010588    0.434924    0.022984
 S         -4.037217    0.542635    0.153444
 C         -5.912763   -2.985882    0.179349
 H         -9.035947   -3.100871    0.063546
 H         -2.808154   -2.921299    0.260152
 C          1.408792    0.375199    0.228495
 C          0.346084    1.324370    0.233919
 C         -0.980428    0.982940    0.232027
 C         -1.408795   -0.375089    0.228493
 C         -0.346088   -1.324259    0.233907
 C          0.980425   -0.982829    0.232016
 H         -1.701003    1.793077    0.233234
 H          1.700999   -1.792966    0.233204
 C         10.582762    0.884762   -0.053380
 C         11.522642   -0.135379   -0.116111
 C         11.223471   -1.585896   -0.122241
 O         10.117259   -2.118878   -0.082188
 C         12.519912   -2.293451   -0.185052
 C         12.748361   -3.661196   -0.209934
 C         14.072599   -4.106475   -0.270649
 C         15.120442   -3.179735   -0.304612
 C         14.884137   -1.799485   -0.279695
 C         13.561863   -1.346151   -0.218849
 C         12.971197    0.017086   -0.180494
 C         13.712733    1.197253   -0.208364
 C         15.137194    1.232183   -0.269261
 N         16.299326    1.321273   -0.318041
 C         13.152639    2.508348   -0.182880
 N         12.746488    3.602280   -0.164992
 H         10.983111    1.892117   -0.049538
 H         11.912325   -4.353521   -0.182419
 H         15.724907   -1.120090   -0.307601
 C        -10.582758   -0.884803   -0.053326
 C        -11.522649    0.135324   -0.116099
 C        -11.223493    1.585845   -0.122227
 O        -10.117286    2.118836   -0.082183
 C        -12.519942    2.293386   -0.185041
 C        -12.748405    3.661129   -0.209928
 C        -14.072647    4.106394   -0.270641
 C        -15.120481    3.179642   -0.304594
 C        -14.884162    1.799395   -0.279675
 C        -13.561883    1.346075   -0.218836
 C        -12.971202   -0.017156   -0.180494
 C        -13.712723   -1.197331   -0.208417
 C        -15.137184   -1.232277   -0.269320
 N        -16.299315   -1.321388   -0.318103
 C        -13.152613   -2.508420   -0.183004
 N        -12.746453   -3.602351   -0.165188
 H        -10.983094   -1.892163   -0.049434
 H        -11.912376    4.353462   -0.182419
 H        -15.724925    1.119991   -0.307574
 C          5.926106    3.830492    1.473839
 H          6.791782    4.501419    1.479746
 H          5.020446    4.443265    1.538048
 C          5.839888    3.904597   -1.061197
 H          6.701732    4.580058   -1.084446
 H          4.930744    4.514932   -1.029677
 C         -5.839841   -3.904586   -1.061083
 H         -6.701673   -4.580062   -1.084306
 H         -4.930687   -4.514904   -1.029553
 C         -5.926042   -3.830414    1.473949
 H         -6.791710   -4.501352    1.479882
 H         -5.020374   -4.443176    1.538162
 F         -0.642124   -2.642212    0.236467
 F          0.642114    2.642325    0.236501
 H          5.833041    3.321847   -1.987332
 H          5.976848    3.194199    2.362655
 H         -5.833012   -3.321862   -1.987234
 H         -5.976781   -3.194102    2.362752
 H         16.146066   -3.534298   -0.351497
 H         14.290602   -5.170121   -0.291449
 H        -14.290662    5.170037   -0.291447
 H        -16.146109    3.534194   -0.351474
