       170
S0: Total Energy = -6257.15953256
 C          7.200679    0.977958   -0.020257
 C          6.699124   -0.338412   -0.016658
 C          5.266358   -0.324839   -0.007960
 C          4.706725    0.955083   -0.003909
 C          3.292232    0.958026   -0.012393
 C          2.789475   -0.325958   -0.012619
 C          1.341626   -0.322860   -0.004871
 C          0.937696    1.036950    0.022093
 C         -0.408976    1.369040    0.024176
 S          5.932082    2.201646   -0.008142
 S          4.016666   -1.562539   -0.008259
 C          2.160316    1.986880    0.021325
 H         -0.734594    2.404847    0.038525
 C         -7.200671   -0.977965    0.020290
 C         -6.699119    0.338407    0.016746
 C         -5.266353    0.324836    0.008166
 C         -4.706716   -0.955085    0.004128
 C         -3.292223   -0.958024    0.012610
 C         -2.789469    0.325961    0.012841
 C         -1.341618    0.322864    0.005139
 C         -0.937687   -1.036943   -0.021820
 C          0.408983   -1.369036   -0.023905
 S         -5.932071   -2.201649    0.008239
 S         -4.016662    1.562540    0.008447
 C         -2.160305   -1.986876   -0.021076
 H          0.734597   -2.404844   -0.038247
 C          2.290923    2.812043    1.321626
 C          3.108410    3.951462    1.360863
 C          3.306721    4.654248    2.548937
 C          2.698201    4.249696    3.743743
 C          1.891130    3.106162    3.703646
 C          1.690580    2.398910    2.518012
 H          3.587517    4.305908    0.453179
 H          3.946787    5.533686    2.543677
 H          1.408588    2.759091    4.614691
 H          1.060897    1.515346    2.532246
 C          2.096558    2.866742   -1.244616
 C          1.327837    4.041388   -1.257850
 C          1.195420    4.800004   -2.418636
 C          1.825953    4.421306   -3.612446
 C          2.586219    3.247280   -3.597717
 C          2.719495    2.481993   -2.437326
 H          0.834884    4.375193   -0.349740
 H          0.591799    5.704717   -2.394818
 H          3.085683    2.921037   -4.507193
 H          3.312022    1.573101   -2.471093
 C         -2.096572   -2.866715    1.244885
 C         -1.327872   -4.041345    1.258174
 C         -1.195468   -4.799920    2.419017
 C         -1.826011   -4.421184    3.612780
 C         -2.586246   -3.247109    3.598008
 C         -2.719506   -2.481891    2.437598
 H         -0.834877   -4.375181    0.350099
 H         -0.591831   -5.704619    2.395258
 H         -3.085674   -2.920789    4.507479
 H         -3.311988   -1.572967    2.471321
 C         -2.290878   -2.812054   -1.321368
 C         -3.108329   -3.951499   -1.360606
 C         -3.306610   -4.654297   -2.548676
 C         -2.698095   -4.249732   -3.743481
 C         -1.891061   -3.106173   -3.703384
 C         -1.690541   -2.398910   -2.517752
 H         -3.587431   -4.305956   -0.452924
 H         -3.946649   -5.533756   -2.543414
 H         -1.408525   -2.759092   -4.614429
 H         -1.060886   -1.515325   -2.531988
 C          2.885147    5.032904    5.021788
 H          2.126068    5.820588    5.119514
 H          2.798404    4.388088    5.902611
 C          1.705769    5.265988   -4.859005
 H          1.953743    4.691134   -5.756997
 H          0.691307    5.662533   -4.977703
 C         -1.706137   -5.265882    4.859358
 H         -0.693348   -5.667504    4.975026
 H         -1.948413   -4.689391    5.757869
 C         -2.885010   -5.032958   -5.021520
 H         -2.797975   -4.388204   -5.902359
 H         -2.126099   -5.820825   -5.119080
 H          3.864612    5.521808    5.051932
 H          2.386048    6.127207   -4.822472
 H         -2.390957   -6.123615    4.825412
 H         -3.864583   -5.521640   -5.051803
 O         -6.354836    5.485488    0.008439
 O        -10.652797    7.030784    0.038064
 C         -7.552923    5.223536    0.016924
 C         -8.072366    3.835058    0.022088
 C         -7.182731    2.789706    0.016593
 H         -6.127821    3.035706    0.007813
 C         -7.620930    1.438670    0.021398
 C         -9.019732    1.169411    0.031038
 C        -11.366860    2.016014    0.046829
 C         -9.957999    2.251854    0.036838
 C         -9.476461    3.591936    0.032460
 C        -10.376822    4.673607    0.037865
 C         -9.888926    6.071906    0.033088
 C        -12.230286    3.123220    0.051988
 H        -13.303590    2.977231    0.059404
 C        -11.747751    4.428302    0.047589
 H        -12.430635    5.270619    0.051488
 O        -14.453073   -3.710552    0.070178
 O        -10.141174   -5.215607    0.035954
 C        -13.256252   -3.446593    0.060938
 C        -12.755507   -2.052160    0.057543
 C        -13.668792   -0.999448    0.064441
 H        -14.728945   -1.226666    0.072238
 C        -13.224936    0.318926    0.061133
 H        -13.968595    1.106623    0.066515
 C        -11.857105    0.637426    0.051017
 C         -9.503389   -0.176411    0.034523
 C        -10.911178   -0.431179    0.044346
 C        -11.376655   -1.777387    0.047425
 C        -10.436197   -2.852029    0.040071
 C        -10.907762   -4.258972    0.042489
 C         -8.589128   -1.266825    0.028062
 C         -9.089617   -2.599597    0.030773
 H         -8.408281   -3.444577    0.025403
 N         -8.496595    6.255260    0.022408
 N        -12.290007   -4.466039    0.052979
 C         -7.965455    7.623583    0.016893
 H         -8.809879    8.308059    0.022921
 H         -7.340186    7.780864    0.898740
 H         -7.354256    7.779180   -0.875077
 C        -12.739220   -5.863561    0.055287
 H        -13.826141   -5.863129    0.063481
 H        -12.364296   -6.373611   -0.835001
 H        -12.350940   -6.375011    0.939017
 O         14.453084    3.710524   -0.070936
 O         10.141196    5.215592   -0.036030
 C         13.256265    3.446569   -0.061526
 C         12.755515    2.052137   -0.058090
 C         13.668795    0.999422   -0.065145
 H         14.728947    1.226637   -0.073105
 C         13.224935   -0.318951   -0.061784
 H         13.968591   -1.106649   -0.067305
 C         11.857105   -0.637446   -0.051453
 C          9.503393    0.176399   -0.034665
 C         10.911183    0.431162   -0.044651
 C         11.376663    1.777368   -0.047779
 C         10.436210    2.852014   -0.040283
 C         10.907779    4.258954   -0.042704
 C          8.589137    1.266816   -0.028119
 C          9.089630    2.599586   -0.030848
 H          8.408296    3.444567   -0.025380
 O          6.354823   -5.485487   -0.008235
 O         10.652768   -7.030806   -0.038353
 C          7.552912   -5.223543   -0.016752
 C          8.072360   -3.835066   -0.021996
 C          7.182728   -2.789711   -0.016447
 H          6.127818   -3.035707   -0.007534
 C          7.620931   -1.438676   -0.021345
 C          9.019732   -1.169422   -0.031121
 C         11.366856   -2.016032   -0.047171
 C          9.957995   -2.251868   -0.037006
 C          9.476453   -3.591948   -0.032537
 C         10.376811   -4.673623   -0.038037
 C          9.888910   -6.071920   -0.033196
 C         12.230277   -3.123242   -0.052405
 H         13.303581   -2.977256   -0.059934
 C         11.747739   -4.428322   -0.047934
 H         12.430621   -5.270641   -0.051904
 N         12.290024    4.466017   -0.053389
 N          8.496580   -6.255269   -0.022184
 C         12.739243    5.863537   -0.055688
 H         12.350829    6.375037   -0.939331
 H         12.364456    6.373541    0.834685
 H         13.826162    5.863102   -0.064049
 C          7.965437   -7.623590   -0.016657
 H          7.352841   -7.778544    0.874446
 H          7.341556   -7.781518   -0.899391
 H          8.809876   -8.308061   -0.020971
       170
T1: Total Energy = -6257.10875027
 C          7.167769    0.984629   -0.021059
 C          6.670568   -0.334038   -0.016581
 C          5.240453   -0.322950   -0.009250
 C          4.678019    0.961799   -0.007139
 C          3.271174    0.960631   -0.014458
 C          2.767979   -0.334473   -0.011664
 C          1.336612   -0.335610   -0.005855
 C          0.921189    1.034022    0.019195
 C         -0.417603    1.357099    0.019721
 S          5.900735    2.209578   -0.011200
 S          4.000309   -1.568273   -0.006760
 C          2.139620    1.987253    0.015447
 H         -0.752779    2.389348    0.032582
 C         -7.170022   -0.994856    0.023229
 C         -6.658514    0.318316    0.019119
 C         -5.243692    0.294722    0.009240
 C         -4.677836   -1.005897    0.004667
 C         -3.284172   -1.004677    0.009147
 C         -2.772409    0.300309    0.006718
 C         -1.350736    0.297485    0.001517
 C         -0.933551   -1.072725   -0.023655
 C          0.407738   -1.393908   -0.024140
 S         -5.912132   -2.237809    0.010346
 S         -4.001235    1.540944    0.005738
 C         -2.149382   -2.028189   -0.023504
 H          0.742765   -2.426249   -0.036899
 C          2.271549    2.813966    1.314917
 C          3.076546    3.962241    1.345994
 C          3.276602    4.666384    2.532803
 C          2.683026    4.254255    3.732654
 C          1.889489    3.100882    3.699816
 C          1.687748    2.391296    2.516116
 H          3.542868    4.323196    0.434374
 H          3.905453    5.553589    2.522249
 H          1.419117    2.748020    4.614751
 H          1.069424    1.499724    2.537855
 C          2.072292    2.859873   -1.255523
 C          1.300945    4.032853   -1.270966
 C          1.162996    4.783931   -2.435444
 C          1.789892    4.399018   -3.629760
 C          2.552571    3.226893   -3.611591
 C          2.690867    2.467675   -2.447597
 H          0.811704    4.371705   -0.362783
 H          0.558303    5.687767   -2.414356
 H          3.049335    2.896636   -4.520846
 H          3.284664    1.559439   -2.480815
 C         -2.080151   -2.905969    1.243438
 C         -1.313211   -4.081510    1.251051
 C         -1.174376   -4.838168    2.412171
 C         -1.796169   -4.456266    3.609692
 C         -2.553363   -3.280031    3.599599
 C         -2.692378   -2.515514    2.439737
 H         -0.828921   -4.418402    0.339495
 H         -0.574095   -5.744801    2.385263
 H         -3.046028   -2.951656    4.511699
 H         -3.283156   -1.605604    2.478963
 C         -2.279556   -2.847579   -1.327572
 C         -3.088709   -3.993159   -1.366477
 C         -3.287920   -4.689802   -2.557179
 C         -2.689633   -4.272859   -3.753665
 C         -1.891788   -3.123284   -3.712608
 C         -1.690933   -2.420286   -2.524358
 H         -3.560239   -4.356118   -0.458397
 H         -3.921457   -5.573669   -2.553457
 H         -1.418822   -2.766525   -4.624647
 H         -1.070751   -1.529850   -2.540266
 C          2.871158    5.039312    5.008984
 H          2.096950    5.810599    5.116644
 H          2.808714    4.391970    5.889880
 C          1.659073    5.235043   -4.880715
 H          1.970044    4.676707   -5.769165
 H          0.626493    5.568980   -5.032217
 C         -1.671241   -5.300489    4.855671
 H         -0.662108   -5.713987    4.959555
 H         -1.897089   -4.720658    5.756142
 C         -2.881593   -5.049661   -5.034421
 H         -2.743245   -4.412130   -5.913568
 H         -2.158612   -5.872754   -5.110362
 H          3.840457    5.548306    5.026551
 H          2.283137    6.136334   -4.822087
 H         -2.366807   -6.149603    4.829231
 H         -3.881852   -5.492312   -5.087267
 O         -6.292846    5.473245    0.016784
 O        -10.587243    7.055521    0.049860
 C         -7.498908    5.214098    0.025210
 C         -8.024111    3.841831    0.028790
 C         -7.126540    2.773820    0.021486
 H         -6.073378    3.025431    0.012276
 C         -7.569634    1.449970    0.025270
 C         -8.979867    1.176878    0.035939
 C        -11.319698    2.031723    0.053140
 C         -9.911895    2.263890    0.042874
 C         -9.420650    3.606742    0.039449
 C        -10.321948    4.697164    0.046480
 C         -9.832763    6.081348    0.043229
 C        -12.186951    3.156336    0.059841
 H        -13.260122    3.010843    0.067598
 C        -11.701530    4.450509    0.056654
 H        -12.379226    5.297265    0.061792
 O        -14.448476   -3.655824    0.072582
 O        -10.143877   -5.205339    0.040984
 C        -13.244779   -3.394139    0.064082
 C        -12.732131   -2.017927    0.061378
 C        -13.642618   -0.943451    0.068351
 H        -14.703352   -1.169253    0.075625
 C        -13.197879    0.360332    0.065838
 H        -13.932645    1.155918    0.071252
 C        -11.811899    0.673178    0.056176
 C         -9.467500   -0.159971    0.039241
 C        -10.874977   -0.406950    0.049131
 C        -11.352078   -1.756934    0.051782
 C        -10.420816   -2.840588    0.044671
 C        -10.899316   -4.231691    0.046926
 C         -8.556310   -1.281260    0.032462
 C         -9.062141   -2.595198    0.035483
 H         -8.391376   -3.448817    0.030369
 N         -8.436203    6.252379    0.032036
 N        -12.285091   -4.423268    0.056367
 C         -7.896100    7.614898    0.027827
 H         -8.736647    8.304442    0.031205
 H         -7.271223    7.770196    0.910841
 H         -7.279904    7.767759   -0.861627
 C        -12.748011   -5.813895    0.058362
 H        -13.835034   -5.800861    0.065610
 H        -12.377798   -6.330377   -0.830719
 H        -12.366054   -6.331746    0.941659
 O         14.411548    3.731887   -0.066071
 O         10.095659    5.227104   -0.037482
 C         13.215486    3.466550   -0.057973
 C         12.717633    2.070564   -0.054166
 C         13.633104    1.019936   -0.059434
 H         14.692719    1.249678   -0.066318
 C         13.192991   -0.299946   -0.055710
 H         13.939044   -1.085271   -0.059841
 C         11.826341   -0.622060   -0.046701
 C          9.470780    0.186626   -0.032863
 C         10.877798    0.444553   -0.041629
 C         11.339592    1.792218   -0.045245
 C         10.397652    2.865287   -0.039682
 C         10.866189    4.273907   -0.042592
 C          8.555751    1.276619   -0.028195
 C          9.051810    2.610512   -0.031597
 H          8.369203    3.454454   -0.027635
 O          6.335883   -5.480905   -0.005095
 O         10.637157   -7.018485   -0.031212
 C          7.533987   -5.219463   -0.013159
 C          8.050790   -3.829044   -0.018721
 C          7.157730   -2.786163   -0.014439
 H          6.104084   -3.037091   -0.006293
 C          7.593384   -1.435395   -0.019766
 C          8.990466   -1.161734   -0.028645
 C         11.339688   -2.001804   -0.042112
 C          9.931565   -2.241188   -0.033031
 C          9.453251   -3.582214   -0.028224
 C         10.356114   -4.662313   -0.032430
 C          9.871002   -6.062150   -0.027336
 C         12.205323   -3.106758   -0.046043
 H         13.278266   -2.958612   -0.052806
 C         11.725821   -4.413649   -0.041316
 H         12.411080   -5.253991   -0.044334
 N         12.247209    4.484116   -0.051790
 N          8.478754   -6.248710   -0.017771
 C         12.693599    5.882881   -0.054503
 H         12.304884    6.392667   -0.938933
 H         12.316800    6.392274    0.835305
 H         13.780500    5.884829   -0.061792
 C          7.950618   -7.618565   -0.012253
 H          7.340538   -7.775598    0.880177
 H          7.325501   -7.776786   -0.893961
 H          8.796586   -8.301072   -0.018867
       170
S1: Total Energy = -6257.10058362
 C          7.162913    0.986068   -0.022235
 C          6.661946   -0.327565   -0.017581
 C          5.234811   -0.308836   -0.008474
 C          4.674384    0.982946   -0.005555
 C          3.274217    0.982674   -0.010725
 C          2.765037   -0.320109   -0.007046
 C          1.343676   -0.317635   -0.002976
 C          0.925927    1.056485    0.021257
 C         -0.411494    1.378421    0.020938
 S          5.904782    2.222216   -0.011138
 S          3.995988   -1.555784   -0.004293
 C          2.143564    2.008957    0.018710
 H         -0.747444    2.410271    0.033109
 C         -7.162911   -0.986047    0.022264
 C         -6.661932    0.327561    0.017575
 C         -5.234790    0.308810    0.008422
 C         -4.674376   -0.982976    0.005490
 C         -3.274204   -0.982707    0.010617
 C         -2.765020    0.320074    0.006925
 C         -1.343661    0.317594    0.002844
 C         -0.925911   -1.056528   -0.021392
 C          0.411510   -1.378464   -0.021066
 S         -5.904799   -2.222219    0.011127
 S         -3.995965    1.555754    0.004206
 C         -2.143551   -2.008994   -0.018847
 H          0.747458   -2.410315   -0.033228
 C          2.277467    2.830626    1.320981
 C          3.079680    3.980858    1.354043
 C          3.281527    4.679287    2.543528
 C          2.693115    4.259312    3.743568
 C          1.902887    3.103811    3.708264
 C          1.699811    2.399044    2.521990
 H          3.543137    4.346678    0.443031
 H          3.908613    5.567617    2.535495
 H          1.437838    2.744473    4.623295
 H          1.085924    1.504270    2.542659
 C          2.075779    2.881309   -1.252039
 C          1.310983    4.058193   -1.264516
 C          1.172677    4.808870   -2.429403
 C          1.792801    4.419438   -3.625585
 C          2.547882    3.241963   -3.610201
 C          2.686057    2.482872   -2.446630
 H          0.827796    4.400732   -0.354505
 H          0.573772    5.716427   -2.406761
 H          3.038672    2.907786   -4.521146
 H          3.274159    1.570990   -2.482385
 C         -2.075760   -2.881387    1.251872
 C         -1.311573   -4.058642    1.264081
 C         -1.173261   -4.809407    2.428936
 C         -1.792793   -4.419690    3.625303
 C         -2.547267   -3.241794    3.610193
 C         -2.685448   -2.482643    2.446687
 H         -0.828850   -4.401416    0.353912
 H         -0.574806   -5.717253    2.406102
 H         -3.037558   -2.907350    4.521311
 H         -3.273054   -1.570449    2.482641
 C         -2.277470   -2.830656   -1.321119
 C         -3.079213   -3.981221   -1.353992
 C         -3.281091   -4.679705   -2.543437
 C         -2.693172   -4.259459   -3.743626
 C         -1.903398   -3.103644   -3.708504
 C         -1.700292   -2.398821   -2.522266
 H         -3.542265   -4.347259   -0.442861
 H         -3.907811   -5.568292   -2.535257
 H         -1.438736   -2.744097   -4.623650
 H         -1.086773   -1.503800   -2.543079
 C          2.885162    5.038047    5.022948
 H          2.117100    5.815355    5.131343
 H          2.815717    4.388059    5.901250
 C          1.666702    5.256891   -4.875872
 H          1.907210    4.676550   -5.772123
 H          0.653015    5.656489   -4.989178
 C         -1.666999   -5.257289    4.875522
 H         -0.655190   -5.662477    4.985497
 H         -1.901231   -4.675257    5.772354
 C         -2.885252   -5.038245   -5.022970
 H         -2.816015   -4.388261   -5.901291
 H         -2.117089   -5.815442   -5.131444
 H          3.858530    5.538942    5.043943
 H          2.350463    6.115396   -4.846940
 H         -2.355703   -6.111936    4.849364
 H         -3.858547   -5.539289   -5.043838
 O         -6.302647    5.478874    0.011627
 O        -10.600414    7.040354    0.042361
 C         -7.505098    5.217397    0.020017
 C         -8.026564    3.836807    0.024248
 C         -7.134238    2.782381    0.018044
 H         -6.080484    3.032276    0.009273
 C         -7.575832    1.443425    0.022453
 C         -8.977397    1.171398    0.032518
 C        -11.322570    2.019987    0.048412
 C         -9.913525    2.255271    0.038505
 C         -9.427685    3.597055    0.034564
 C        -10.328877    4.682301    0.040625
 C         -9.841818    6.073017    0.036777
 C        -12.187122    3.133676    0.054120
 H        -13.260415    2.987989    0.061585
 C        -11.703309    4.434142    0.050359
 H        -12.384658    5.277946    0.054784
 O        -14.429468   -3.693092    0.069208
 O        -10.117823   -5.213843    0.039038
 C        -13.229547   -3.427960    0.060998
 C        -12.724133   -2.042888    0.058021
 C        -13.632949   -0.980584    0.064285
 H        -14.693837   -1.205355    0.071346
 C        -13.187473    0.332778    0.061359
 H        -13.927631    1.123608    0.066295
 C        -11.813457    0.649025    0.052032
 C         -9.463546   -0.174320    0.036346
 C        -10.871966   -0.425057    0.045780
 C        -11.341804   -1.773415    0.048786
 C        -10.407651   -2.850850    0.042347
 C        -10.881292   -4.250104    0.044684
 C         -8.555690   -1.277115    0.030645
 C         -9.053606   -2.600307    0.033795
 H         -8.376983   -3.449127    0.029207
 N         -8.446396    6.250907    0.026258
 N        -12.264562   -4.451102    0.053865
 C         -7.912233    7.616770    0.021792
 H         -8.755506    8.302809    0.027944
 H         -7.286227    7.773135    0.903583
 H         -7.299627    7.772552   -0.869472
 C        -12.718823   -5.845772    0.055859
 H        -13.805817   -5.840334    0.063150
 H        -12.345265   -6.358591   -0.833686
 H        -12.333383   -6.359940    0.939525
 O         14.429376    3.693256   -0.068951
 O         10.117709    5.213912   -0.038903
 C         13.229467    3.428121   -0.060769
 C         12.724083    2.043014   -0.057799
 C         13.632926    0.980747   -0.064038
 H         14.693808    1.205543   -0.071071
 C         13.187475   -0.332635   -0.061125
 H         13.927656   -1.123444   -0.066042
 C         11.813482   -0.648911   -0.051844
 C          9.463553    0.174379   -0.036229
 C         10.871964    0.425145   -0.045613
 C         11.341771    1.773506   -0.048598
 C         10.407592    2.850927   -0.042191
 C         10.881209    4.250212   -0.044520
 C          8.555672    1.277140   -0.030556
 C          9.053575    2.600365   -0.033686
 H          8.376935    3.449171   -0.029120
 O          6.302755   -5.478865   -0.011903
 O         10.600543   -7.040260   -0.042330
 C          7.505196   -5.217388   -0.020116
 C          8.026643   -3.836769   -0.024263
 C          7.134308   -2.782378   -0.018097
 H          6.080557   -3.032291   -0.009409
 C          7.575877   -1.443393   -0.022442
 C          8.977428   -1.171350   -0.032444
 C         11.322616   -2.019898   -0.048257
 C          9.913576   -2.255203   -0.038408
 C          9.427764   -3.596989   -0.034502
 C         10.328966   -4.682216   -0.040540
 C          9.841920   -6.072959   -0.036729
 C         12.187178   -3.133560   -0.053948
 H         13.260468   -2.987858   -0.061374
 C         11.703382   -4.434045   -0.050221
 H         12.384745   -5.277838   -0.054634
 N         12.264469    4.451244   -0.053669
 N          8.446507   -6.250882   -0.026197
 C         12.718701    5.845929   -0.055660
 H         12.333266    6.360079   -0.939338
 H         12.345114    6.358738    0.833877
 H         13.805696    5.840519   -0.062930
 C          7.912368   -7.616759   -0.021762
 H          7.298745   -7.772109    0.868864
 H          7.287380   -7.773571   -0.904208
 H          8.755660   -8.302783   -0.026678
