       116
S0: Total Energy = -6843.82984590
 C         15.895485   -0.335706    0.213903
 C         15.726599    1.074029    0.090888
 C         16.990554    1.763204    0.076426
 C         18.049685    0.921091    0.195640
 C         14.825188   -1.224917    0.229283
 C         14.428976    1.607859   -0.012558
 C         13.358816    0.720781    0.001134
 C         13.525134   -0.690090    0.126157
 C         12.273989   -1.381015    0.145434
 H         12.169777   -2.453391    0.255393
 C         11.187682   -0.550067    0.018516
 H         17.084292    2.837258   -0.031272
 H         19.099548    1.184213    0.211247
 S         17.596285   -0.767260    0.331672
 S         11.663241    1.157895   -0.132224
 C          9.798146   -0.934729   -0.000281
 C          9.202872   -2.181453   -0.036763
 C          9.645857   -3.592197   -0.112128
 C          7.781868   -2.162920   -0.053967
 C          7.300414   -3.561537   -0.137901
 C          7.218567   -0.901540   -0.033675
 S          8.523356    0.286534    0.032383
 N          8.464752   -4.346568   -0.175168
 O         10.763500   -4.085511   -0.121068
 O          6.166405   -4.014512   -0.168389
 O         15.053233   -2.568084    0.392160
 O         14.215185    2.958369   -0.167013
 C         14.911180   -3.366714   -0.796000
 H         13.881133   -3.349572   -1.167385
 H         15.591543   -3.017551   -1.581069
 H         15.175582   -4.384785   -0.505523
 C         14.191764    3.703740    1.061928
 H         13.389468    3.349944    1.719607
 H         15.151196    3.629469    1.586714
 H         14.005792    4.742447    0.782839
 C          8.458842   -5.797811   -0.250799
 H          7.418220   -6.122954   -0.257642
 H          8.958038   -6.133468   -1.164147
 H          8.976283   -6.224316    0.612944
 C          5.839144   -0.480483   -0.054807
 C          4.728613   -1.278883    0.079358
 S          5.413974    1.231793   -0.274712
 C          3.498319   -0.557324    0.010073
 H          4.802395   -2.348642    0.228441
 C          3.705839    0.843597   -0.162242
 C          2.181411   -1.053618    0.111148
 C          2.664936    1.761218   -0.228551
 C          1.140640   -0.135777    0.046541
 O          1.909071   -2.381384    0.320893
 C          1.347850    1.264902   -0.128247
 O          2.936784    3.088885   -0.439428
 S         -0.567241   -0.524489    0.159483
 C          2.065521   -3.234529   -0.828055
 C          0.117542    1.985986   -0.200023
 C          2.783599    3.942178    0.709567
 C         -0.992970    1.187271   -0.063297
 H          1.422051   -2.899392   -1.649325
 H          3.107043   -3.263639   -1.164309
 H          1.760308   -4.230530   -0.503512
 H          0.042847    3.055300   -0.354930
 H          1.743640    3.967924    1.051046
 H          3.432099    3.609607    1.527934
 H          3.083776    4.939026    0.382991
 C         -2.371931    1.608515   -0.085487
 C         -2.933781    2.870415   -0.131999
 S         -3.678440    0.421401   -0.056770
 C         -2.454095    4.271834   -0.142115
 C         -4.354504    2.890115   -0.130547
 C         -4.951177    1.644465   -0.080387
 N         -3.614681    5.058740   -0.143598
 O         -1.323671    4.734963   -0.149736
 C         -4.799254    4.303246   -0.142424
 C         -3.582533    6.511615   -0.162051
 O         -5.920780    4.786801   -0.153289
 H         -4.613441    6.863236   -0.208956
 H         -3.101596    6.894175    0.742717
 H         -3.027850    6.865955   -1.035090
 C         -6.341247    1.261193   -0.049124
 C         -7.428962    2.080767   -0.233465
 S         -6.813860   -0.425326    0.256420
 C         -8.678760    1.396844   -0.135595
 H         -7.325185    3.138790   -0.438274
 C         -8.510026    0.001951    0.110983
 C         -9.981329    1.921769   -0.270765
 C         -9.575586   -0.883347    0.217584
 C        -11.046571    1.036114   -0.165180
 O        -10.218102    3.243275   -0.551185
 C        -10.877940   -0.358507    0.082348
 O         -9.339883   -2.204651    0.500145
 S        -12.742927    1.464079   -0.307309
 C        -10.040094    4.152613    0.550448
 C        -12.129144   -1.041787    0.181630
 C         -9.506285   -3.113212   -0.603691
 C        -13.215110   -0.221441   -0.001572
 H        -10.691003    3.877804    1.388096
 H         -8.997997    4.174492    0.885416
 H        -10.321043    5.136941    0.172705
 H        -12.234166   -2.099995    0.388757
 H        -10.543711   -3.129672   -0.953349
 H         -8.842451   -2.841633   -1.432227
 H         -9.235651   -4.098920   -0.222139
 C        -14.606570   -0.609186    0.032823
 C        -15.190686   -1.856943    0.140595
 S        -15.894923    0.600904   -0.068028
 C        -14.765120   -3.272264    0.247023
 C        -16.613516   -1.832732    0.134723
 C        -17.157492   -0.590313    0.026141
 N        -15.956120   -4.017144    0.298661
 O        -13.653018   -3.775312    0.289889
 C        -17.117452   -3.224347    0.238480
 C        -15.973726   -5.465733    0.410916
 O        -18.257827   -3.645876    0.268367
 H        -17.017590   -5.779774    0.440496
 H        -15.473792   -5.920811   -0.448742
 H        -15.464403   -5.782620    1.325305
 H        -18.196421   -0.291479   -0.005419
       116
T1: Total Energy = -6843.77735212
 C         15.906232   -0.340253    0.046354
 C         15.739654    1.064943   -0.123309
 C         17.004114    1.746529   -0.197091
 C         18.063581    0.903654   -0.075865
 C         14.833837   -1.223065    0.122343
 C         14.440353    1.601678   -0.211695
 C         13.368225    0.722313   -0.137797
 C         13.531445   -0.685414    0.034902
 C         12.282867   -1.368198    0.115381
 H         12.175999   -2.434485    0.272264
 C         11.190053   -0.535408   -0.012478
 H         17.099336    2.815469   -0.346225
 H         19.114360    1.162592   -0.097989
 S         17.607963   -0.775585    0.133586
 S         11.671023    1.163791   -0.238312
 C          9.806430   -0.906793    0.021142
 C          9.198191   -2.153986    0.088188
 C          9.644633   -3.570596    0.124244
 C          7.787355   -2.136622    0.093888
 C          7.304720   -3.530454    0.127801
 C          7.216142   -0.855062    0.032695
 S          8.539443    0.331560   -0.024422
 N          8.468876   -4.324581    0.145949
 O         10.765404   -4.058365    0.135251
 O          6.170477   -3.989636    0.138287
 O         15.061444   -2.559338    0.327938
 O         14.230197    2.946827   -0.409007
 C         14.875853   -3.403948   -0.822245
 H         13.835797   -3.389350   -1.164149
 H         15.536828   -3.094663   -1.639856
 H         15.137762   -4.412254   -0.497785
 C         14.239446    3.735698    0.792885
 H         13.450110    3.411023    1.480513
 H         15.210106    3.673396    1.298183
 H         14.053555    4.765004    0.480998
 C          8.457569   -5.776590    0.187779
 H          7.415733   -6.096056    0.223737
 H          8.940394   -6.188649   -0.703043
 H          8.986690   -6.135179    1.075123
 C          5.868571   -0.440062    0.014918
 C          4.724118   -1.261278    0.117432
 S          5.420551    1.268527   -0.148236
 C          3.520618   -0.558497    0.053303
 H          4.813765   -2.332625    0.247967
 C          3.709588    0.859689   -0.067516
 C          2.177478   -1.068972    0.134955
 C          2.673893    1.765269   -0.087447
 C          1.142347   -0.164350    0.114421
 O          1.917730   -2.400629    0.289858
 C          1.330793    1.254982   -0.006979
 O          2.934952    3.096547   -0.242346
 S         -0.569591   -0.574456    0.191704
 C          2.160867   -3.235932   -0.859868
 C          0.128683    1.957100   -0.074987
 C          2.686546    3.933606    0.905016
 C         -1.019049    1.133602    0.024439
 H          1.549315   -2.906462   -1.706881
 H          3.217569   -3.232316   -1.142244
 H          1.866686   -4.242469   -0.560170
 H          0.038505    3.028106   -0.208019
 H          1.628681    3.930115    1.182797
 H          3.294531    3.605520    1.755139
 H          2.981758    4.939751    0.605016
 C         -2.362762    1.546287   -0.002228
 C         -2.933409    2.831333   -0.074435
 S         -3.690278    0.360654    0.051451
 C         -2.449273    4.225568   -0.111203
 C         -4.340208    2.851942   -0.081275
 C         -4.955064    1.603797   -0.013731
 N         -3.607417    5.022450   -0.143484
 O         -1.317527    4.690685   -0.114716
 C         -4.786821    4.269954   -0.127897
 C         -3.568831    6.473853   -0.190540
 O         -5.910450    4.749376   -0.149845
 H         -4.598084    6.828976   -0.248410
 H         -3.090017    6.873475    0.708119
 H         -3.010089    6.809733   -1.068376
 C         -6.336151    1.237131    0.006286
 C         -7.429507    2.073025   -0.138487
 S         -6.823268   -0.459979    0.230331
 C         -8.676517    1.393850   -0.071209
 H         -7.318337    3.137744   -0.300255
 C         -8.517870   -0.014883    0.108483
 C         -9.979251    1.932647   -0.183150
 C         -9.587430   -0.895766    0.167542
 C        -11.048801    1.049637   -0.125512
 O        -10.207351    3.266991   -0.398068
 C        -10.889284   -0.357045    0.053358
 O         -9.364262   -2.231641    0.383596
 S        -12.742504    1.493602   -0.252008
 C        -10.018317    4.122229    0.744547
 C        -12.141553   -1.036766    0.113294
 C         -9.523671   -3.079064   -0.768901
 C        -13.225007   -0.202008   -0.034323
 H        -10.675577    3.818745    1.567170
 H         -8.977030    4.112515    1.082122
 H        -10.283480    5.126860    0.411732
 H        -12.253208   -2.103397    0.267595
 H        -10.555725   -3.064471   -1.134336
 H         -8.844115   -2.772245   -1.571979
 H         -9.270043   -4.086633   -0.435915
 C        -14.616676   -0.584050   -0.027631
 C        -15.208089   -1.832707    0.030896
 S        -15.899218    0.635171   -0.101662
 C        -14.790677   -3.252521    0.093743
 C        -16.630471   -1.800846    0.011190
 C        -17.167818   -0.552815   -0.060429
 N        -15.985983   -3.992767    0.109439
 O        -13.681567   -3.763042    0.129116
 C        -17.142466   -3.192479    0.063584
 C        -16.011683   -5.444177    0.171999
 O        -18.285358   -3.608431    0.067602
 H        -17.057307   -5.753525    0.184399
 H        -15.508653   -5.872518   -0.699557
 H        -15.509764   -5.794728    1.078145
 H        -18.205085   -0.248279   -0.092101
       116
S1: Total Energy = -6843.75802580
 C         15.900209   -0.352985    0.048882
 C         15.737254    1.052874   -0.118336
 C         17.000596    1.730053   -0.191099
 C         18.059443    0.882337   -0.070087
 C         14.827788   -1.235416    0.117484
 C         14.436352    1.593638   -0.209964
 C         13.364237    0.716560   -0.142838
 C         13.522642   -0.693199    0.028528
 C         12.276109   -1.369577    0.112987
 H         12.162486   -2.434398    0.274607
 C         11.182097   -0.531517   -0.014986
 H         17.100354    2.798552   -0.339922
 H         19.110590    1.139867   -0.091278
 S         17.600656   -0.792975    0.135585
 S         11.667889    1.163032   -0.242469
 C          9.801060   -0.902561    0.020136
 C          9.194385   -2.152081    0.086868
 C          9.641694   -3.569482    0.118946
 C          7.784562   -2.135075    0.093627
 C          7.302310   -3.529956    0.126442
 C          7.213306   -0.857763    0.033255
 S          8.530611    0.330952   -0.023503
 N          8.467434   -4.323991    0.140830
 O         10.763555   -4.055098    0.126894
 O          6.168736   -3.988941    0.138987
 O         15.059647   -2.567459    0.321754
 O         14.229435    2.937387   -0.405518
 C         14.811162   -3.434389   -0.801650
 H         13.754770   -3.428194   -1.086873
 H         15.427679   -3.139035   -1.657863
 H         15.092896   -4.435040   -0.471132
 C         14.259073    3.732238    0.793408
 H         13.475493    3.415450    1.490934
 H         15.235144    3.665527    1.287090
 H         14.076401    4.760783    0.477905
 C          8.456594   -5.776258    0.179999
 H          7.414838   -6.095805    0.217229
 H          8.937716   -6.186448   -0.712580
 H          8.987251   -6.136294    1.065821
 C          5.858105   -0.441658    0.015410
 C          4.726394   -1.254988    0.128982
 S          5.417441    1.269985   -0.163967
 C          3.513738   -0.548446    0.064828
 H          4.811903   -2.325843    0.266683
 C          3.707072    0.866357   -0.072112
 C          2.180963   -1.054894    0.155130
 C          2.669737    1.774567   -0.105199
 C          1.143453   -0.147269    0.121802
 O          1.918758   -2.385638    0.328741
 C          1.336161    1.268170   -0.017659
 O          2.935793    3.104617   -0.278756
 S         -0.566997   -0.551391    0.209994
 C          2.132914   -3.227565   -0.820938
 C          0.124179    1.974058   -0.088299
 C          2.698293    3.952399    0.862104
 C         -1.009596    1.159522    0.023023
 H          1.508851   -2.897717   -1.658757
 H          3.184589   -3.233328   -1.122872
 H          1.836857   -4.230881   -0.511926
 H          0.037452    3.043919   -0.231465
 H          1.641076    3.959704    1.143146
 H          3.305675    3.626805    1.713826
 H          3.000381    4.954161    0.553803
 C         -2.364045    1.567637   -0.003991
 C         -2.939289    2.844762   -0.074892
 S         -3.682180    0.373066    0.050351
 C         -2.455450    4.242720   -0.113086
 C         -4.344064    2.864514   -0.079602
 C         -4.958239    1.609593   -0.012399
 N         -3.611988    5.037117   -0.140742
 O         -1.323191    4.705391   -0.120900
 C         -4.791644    4.278805   -0.122212
 C         -3.578096    6.488249   -0.186673
 O         -5.914826    4.760142   -0.138928
 H         -4.608864    6.839780   -0.240279
 H         -3.097486    6.889433    0.710476
 H         -3.024158    6.827478   -1.066417
 C         -6.329487    1.239771    0.007534
 C         -7.434517    2.077249   -0.122792
 S         -6.815169   -0.460206    0.210980
 C         -8.671377    1.398650   -0.057825
 H         -7.323595    3.143400   -0.274935
 C         -8.512751   -0.016278    0.101406
 C         -9.983337    1.935614   -0.160647
 C         -9.577089   -0.898115    0.145368
 C        -11.047238    1.050703   -0.118559
 O        -10.216489    3.270882   -0.354491
 C        -10.886740   -0.361315    0.039241
 O         -9.351013   -2.235918    0.340549
 S        -12.744057    1.493146   -0.233452
 C         -9.992910    4.119677    0.787398
 C        -12.130247   -1.041236    0.094229
 C         -9.530904   -3.071432   -0.817880
 C        -13.223903   -0.205648   -0.039615
 H        -10.628651    3.812391    1.625293
 H         -8.943199    4.106273    1.096412
 H        -10.265297    5.126305    0.466891
 H        -12.241471   -2.109696    0.237011
 H        -10.568246   -3.051641   -1.167132
 H         -8.863042   -2.757280   -1.627856
 H         -9.273809   -4.082562   -0.498776
 C        -14.606595   -0.593323   -0.034818
 C        -15.194433   -1.848619    0.029928
 S        -15.898557    0.619937   -0.120983
 C        -14.772712   -3.262524    0.102019
 C        -16.616369   -1.821440    0.006920
 C        -17.160414   -0.576651   -0.073805
 N        -15.967220   -4.009256    0.122091
 O        -13.662081   -3.772877    0.140449
 C        -17.124833   -3.214494    0.068308
 C        -15.986561   -5.459797    0.193893
 O        -18.267767   -3.632783    0.072981
 H        -17.030848   -5.773851    0.207134
 H        -15.480607   -5.892144   -0.674135
 H        -15.484143   -5.802939    1.102722
 H        -18.199487   -0.278758   -0.109445
