       152
S0: Total Energy = -9703.49035805
 C          8.964362   -1.516097   -0.211612
 C          8.375338   -2.757523   -0.322380
 C          8.826584   -4.162456   -0.450739
 C          6.951520   -2.748658   -0.327780
 C          6.480166   -4.146777   -0.460193
 C          6.376554   -1.500465   -0.220249
 S          7.677529   -0.304135   -0.108043
 N          7.649620   -4.922531   -0.525958
 O          9.947938   -4.639859   -0.491018
 O          5.348463   -4.598264   -0.509386
 C          7.652138   -6.369249   -0.659402
 H          6.613242   -6.699047   -0.687935
 H          8.161179   -6.665207   -1.581025
 H          8.164565   -6.827826    0.190908
 C         10.341097   -1.082863   -0.167772
 C         10.771176    0.220148   -0.092771
 S         11.698935   -2.222884   -0.196406
 C         12.191318    0.370059   -0.055888
 H         10.092656    1.063750   -0.052994
 C         12.849775   -0.894232   -0.090366
 C         12.940367    1.569201    0.058068
 C         14.240632   -1.038895   -0.002669
 C         14.329185    1.420799    0.145400
 C         12.312592    2.900315    0.085686
 C         14.990481    0.156086    0.112840
 C         14.867097   -2.372253   -0.030016
 S         15.497856    2.739950    0.240523
 C         12.483782    3.903021    1.009359
 S         11.237444    3.448487   -1.196762
 C         16.423914    0.305433    0.155322
 C         14.704669   -3.370396   -0.959692
 S         15.924608   -2.928183    1.263159
 C         16.823759    1.600082    0.223601
 C         11.756443    5.091821    0.706807
 H         13.098183    3.784162    1.895204
 C         11.028885    5.016593   -0.451418
 H         17.112860   -0.529070    0.123705
 C         15.424689   -4.562790   -0.652756
 H         14.099103   -3.248436   -1.851194
 C         16.137920   -4.494372    0.514411
 H         17.839245    1.972601    0.265026
 H         11.768064    5.977463    1.334164
 C         10.154296    6.063729   -1.074102
 H         15.415975   -5.446598   -1.282660
 C         17.000002   -5.547342    1.144956
 H          9.113193    5.728554   -1.160429
 H         10.167044    6.967984   -0.458007
 H         10.494385    6.336289   -2.080323
 H         16.637271   -5.830908    2.140261
 H         17.000723   -6.445140    0.519279
 H         18.038517   -5.213289    1.257494
 C          5.005125   -1.049587   -0.184778
 S          3.632338   -2.168817   -0.255483
 C          4.592700    0.258550   -0.089192
 C          2.499092   -0.825494   -0.142420
 C          3.175769    0.429437   -0.070444
 H          5.282834    1.090589   -0.020329
 C          1.107192   -0.951731   -0.078383
 C          2.444878    1.639010    0.058497
 C          0.376247    0.257778    0.051037
 C          0.458244   -2.271401   -0.142266
 C          1.052859    1.512798    0.122332
 C          3.094033    2.958531    0.123391
 C         -1.040659    0.428190    0.070570
 C          0.630424   -3.259776   -1.081165
 S         -0.645952   -2.826264    1.112427
 S         -0.080616    2.856225    0.233208
 C          2.920031    3.947097    1.061800
 S          4.202544    3.512433   -1.127932
 C         -1.453201    1.736316    0.165789
 H         -1.730571   -0.404084    0.001528
 C         -0.118839   -4.442651   -0.812098
 H          1.262558   -3.136239   -1.953720
 C         -0.864239   -4.377455    0.335220
 C          3.671286    5.129222    0.795088
 H          2.285438    3.824051    1.932634
 C          4.420257    5.063242   -0.349856
 C         -2.824075    2.187540    0.206490
 H         -0.107242   -5.317751   -1.453895
 C         -1.761678   -5.423830    0.925626
 H          3.658695    6.004254    1.436967
 C          5.321572    6.108316   -0.936717
 C         -3.396220    3.438620    0.295424
 S         -4.127152    0.990702    0.133915
 H         -2.800066   -5.077563    0.999922
 H         -1.749003   -6.317772    0.294741
 H         -1.441409   -5.717071    1.932494
 H          5.007797    6.399633   -1.946174
 H          5.304997    7.003505   -0.307675
 H          6.360406    5.761746   -1.003608
 C         -2.925647    4.839939    0.393962
 C         -4.819539    3.449203    0.302569
 C         -5.411449    2.206527    0.221435
 N         -4.091346    5.617489    0.451734
 O         -1.797352    5.301314    0.426252
 C         -5.271624    4.856403    0.403125
 C         -4.068963    7.066645    0.554298
 O         -6.396670    5.324692    0.441136
 H         -5.103259    7.410740    0.580590
 H         -3.551441    7.374909    1.467079
 H         -3.554771    7.500275   -0.307959
 C         -6.789085    1.774312    0.199474
 S         -8.145855    2.913766    0.258001
 C         -7.220232    0.470568    0.130045
 C         -9.298099    1.584671    0.176711
 C         -8.639601    0.319365    0.123397
 H         -6.542277   -0.372272    0.071971
 C        -10.688790    1.729421    0.119771
 C         -9.388268   -0.881956    0.021626
 C        -11.437179    0.528502    0.018113
 C        -11.319084    3.059020    0.163721
 C        -10.778744   -0.736819   -0.035096
 C         -8.758839   -2.211764   -0.021071
 C        -12.857531    0.377748    0.012910
 C        -11.126779    4.062354    1.082620
 S        -12.426190    3.604996   -1.092377
 S        -11.932964   -2.065057   -0.113825
 C         -8.954579   -3.217059   -0.937195
 S         -7.650522   -2.756383    1.234469
 C        -13.287651   -0.924771   -0.054140
 H        -13.535361    1.220754    0.070492
 C        -11.863134    5.249660    0.797477
 H        -10.489490    3.946843    1.952544
 C        -12.618760    5.173021   -0.342419
 C         -8.219919   -4.404883   -0.650346
 H         -9.593063   -3.102586   -1.806359
 C         -7.462361   -4.326522    0.488172
 C        -14.664846   -1.366161   -0.072043
 H        -11.835307    6.136188    1.422889
 C        -13.507164    6.219767   -0.946036
 H         -8.250433   -5.292932   -1.273451
 C         -6.574353   -5.373140    1.092223
 C        -15.244150   -2.615861   -0.150854
 S        -15.965998   -0.160312    0.021245
 H        -14.547462    5.880743   -1.020228
 H        -13.489345    7.120076   -0.324355
 H        -13.181046    6.500380   -1.954704
 H         -6.891249   -5.643001    2.106675
 H         -6.603020   -6.278675    0.478640
 H         -5.531149   -5.038978    1.153118
 C        -14.812021   -4.030796   -0.253514
 C        -16.668737   -2.602162   -0.137057
 C        -17.219111   -1.362227   -0.048417
 N        -16.000793   -4.782313   -0.293806
 O        -13.698136   -4.523141   -0.299412
 C        -17.165292   -3.996453   -0.228213
 H        -18.260325   -1.070519   -0.019069
 C        -16.010082   -6.231636   -0.394519
 O        -18.304222   -4.423866   -0.246686
 H        -17.051996   -6.553393   -0.404355
 H        -15.513728   -6.552560   -1.314707
 H        -15.492079   -6.675785    0.460119
       152
T1: Total Energy = -9703.43865191
 C          8.957562   -1.517020   -0.181479
 C          8.364955   -2.767437   -0.240890
 C          8.825867   -4.177504   -0.322780
 C          6.951948   -2.769375   -0.228239
 C          6.484830   -4.164633   -0.302693
 C          6.359037   -1.506921   -0.153525
 S          7.667655   -0.296582   -0.109039
 N          7.656945   -4.945053   -0.355098
 O          9.952346   -4.644152   -0.359093
 O          5.352289   -4.622437   -0.322014
 C          7.661260   -6.394943   -0.437066
 H          6.622395   -6.726439   -0.444306
 H          8.161642   -6.723990   -1.352376
 H          8.181453   -6.823901    0.424135
 C         10.328462   -1.087742   -0.170587
 C         10.761587    0.220831   -0.130774
 S         11.690553   -2.225469   -0.200488
 C         12.179363    0.372469   -0.124995
 H         10.081908    1.063454   -0.092494
 C         12.840380   -0.892201   -0.144444
 C         12.930004    1.575397   -0.051095
 C         14.231549   -1.033034   -0.078121
 C         14.320389    1.430001    0.014908
 C         12.302884    2.906357   -0.044684
 C         14.982695    0.165808   -0.001984
 C         14.860315   -2.365524   -0.087900
 S         15.489368    2.751949    0.058104
 C         12.497407    3.934677    0.845970
 S         11.201322    3.421815   -1.318558
 C         16.415665    0.316858    0.010032
 C         14.681969   -3.384696   -0.991467
 S         15.944147   -2.890391    1.196541
 C         16.815721    1.613440    0.041941
 C         11.768009    5.117136    0.525109
 H         13.130442    3.838826    1.721392
 C         11.015709    5.011739   -0.614941
 H         17.104931   -0.517555   -0.016212
 C         15.410348   -4.568643   -0.671890
 H         14.058711   -3.283960   -1.873360
 C         16.146064   -4.472729    0.479275
 H         17.831464    1.987245    0.056198
 H         11.796625    6.020480    1.126132
 C         10.134284    6.045316   -1.250298
 H         15.391127   -5.466453   -1.281433
 C         17.022490   -5.509690    1.116530
 H          9.091221    5.711153   -1.312600
 H         10.158903    6.965005   -0.657860
 H         10.459495    6.291113   -2.268300
 H         16.680092   -5.770859    2.125077
 H         17.012556   -6.421631    0.511736
 H         18.062396   -5.171624    1.200747
 C          5.010574   -1.080809   -0.110116
 S          3.635237   -2.186404   -0.185510
 C          4.569965    0.253652   -0.001092
 C          2.495405   -0.841347   -0.083807
 C          3.182055    0.414334   -0.003858
 H          5.263096    1.078379    0.107380
 C          1.113138   -0.971032   -0.001038
 C          2.432150    1.647009    0.142788
 C          0.363403    0.261619    0.142269
 C          0.461112   -2.278344   -0.056257
 C          1.052011    1.518235    0.224885
 C          3.085786    2.954291    0.204775
 C         -1.022634    0.422723    0.134127
 C          0.716921   -3.321081   -0.921238
 S         -0.759801   -2.771010    1.119348
 S         -0.087817    2.865202    0.329607
 C          2.837227    3.988048    1.081820
 S          4.300171    3.456219   -0.973032
 C         -1.465054    1.761158    0.244677
 H         -1.716527   -0.400381    0.019123
 C         -0.051791   -4.487833   -0.657253
 H          1.416299   -3.240825   -1.745747
 C         -0.898826   -4.362934    0.414364
 C          3.607296    5.156036    0.825527
 H          2.141692    3.900762    1.908901
 C          4.447979    5.040326   -0.251827
 C         -2.808983    2.185069    0.279633
 H          0.016058   -5.395851   -1.247408
 C         -1.842338   -5.381839    0.978629
 H          3.544851    6.058011    1.425479
 C          5.392198    6.062187   -0.809796
 C         -3.403264    3.451081    0.361858
 S         -4.121571    0.976020    0.208334
 H         -2.882651   -5.035323    0.946903
 H         -1.776181   -6.306788    0.398106
 H         -1.608310   -5.620574    2.022904
 H          5.157285    6.309087   -1.851953
 H          5.327762    6.982872   -0.222303
 H          6.432174    5.714263   -0.781333
 C         -2.936456    4.845764    0.456980
 C         -4.811732    3.451936    0.358205
 C         -5.410412    2.201388    0.275544
 N         -4.104185    5.628399    0.504479
 O         -1.806671    5.309196    0.495049
 C         -5.275174    4.861481    0.450668
 C         -4.085738    7.077117    0.603165
 O         -6.406028    5.317280    0.479938
 H         -5.121102    7.418886    0.623333
 H         -3.574387    7.390590    1.517830
 H         -3.569085    7.511310   -0.257533
 C         -6.778334    1.779216    0.237994
 S         -8.140537    2.915974    0.297935
 C         -7.214852    0.470264    0.147635
 C         -9.291124    1.585872    0.188811
 C         -8.629187    0.320173    0.127033
 H         -6.534986   -0.370117    0.079585
 C        -10.678726    1.730355    0.117336
 C         -9.379010   -0.881408    0.002384
 C        -11.428033    0.529087   -0.007935
 C        -11.311516    3.058405    0.170652
 C        -10.768396   -0.735292   -0.069345
 C         -8.750711   -2.210425   -0.046718
 C        -12.845953    0.379623   -0.029825
 C        -11.132183    4.050096    1.104610
 S        -12.403962    3.619184   -1.092029
 S        -11.922379   -2.062233   -0.175721
 C         -8.947158   -3.211225   -0.968160
 S         -7.649035   -2.765825    1.210595
 C        -13.277423   -0.923181   -0.118191
 H        -13.524277    1.221985    0.031757
 C        -11.866544    5.240119    0.825608
 H        -10.505148    3.924174    1.980509
 C        -12.607887    5.177246   -0.324431
 C         -8.219576   -4.403551   -0.683593
 H         -9.581206   -3.089910   -1.839592
 C         -7.466823   -4.333810    0.458818
 C        -14.652928   -1.362889   -0.159071
 H        -11.847662    6.118613    1.462608
 C        -13.490160    6.230661   -0.925435
 H         -8.251798   -5.288787   -1.310607
 C         -6.588702   -5.388478    1.062966
 C        -15.232231   -2.612404   -0.253532
 S        -15.955393   -0.156523   -0.078970
 H        -14.528984    5.891367   -1.017166
 H        -13.481425    7.122778   -0.291845
 H        -13.151814    6.524925   -1.926169
 H         -6.916093   -5.664714    2.072391
 H         -6.615041   -6.289264    0.442328
 H         -5.544934   -5.058775    1.136512
 C        -14.799592   -4.026320   -0.357704
 C        -16.656757   -2.597559   -0.260270
 C        -17.207879   -1.357839   -0.172918
 N        -15.988432   -4.777215   -0.418853
 O        -13.685499   -4.519742   -0.391002
 C        -17.153016   -3.991002   -0.365835
 H        -18.249316   -1.065910   -0.157002
 C        -15.997153   -6.225855   -0.527770
 O        -18.292050   -4.417326   -0.402854
 H        -17.039026   -6.546768   -0.555262
 H        -15.487081   -6.542111   -1.442072
 H        -15.492564   -6.675344    0.332115
       152
S1: Total Energy = -9703.42071590
 C          8.964869   -1.508726   -0.196899
 C          8.370030   -2.758866   -0.270845
 C          8.830324   -4.168098   -0.356146
 C          6.957566   -2.757466   -0.272454
 C          6.489707   -4.154945   -0.359031
 C          6.367760   -1.497428   -0.197821
 S          7.673797   -0.289101   -0.135300
 N          7.661488   -4.935256   -0.403607
 O          9.957118   -4.634403   -0.385635
 O          5.358070   -4.611798   -0.392146
 C          7.665869   -6.384760   -0.494369
 H          6.626980   -6.715549   -0.514553
 H          8.175708   -6.708304   -1.406387
 H          8.176666   -6.819099    0.369722
 C         10.333979   -1.084719   -0.164064
 C         10.770425    0.224913   -0.086183
 S         11.694452   -2.221268   -0.212880
 C         12.184572    0.374362   -0.069436
 H         10.089840    1.065110   -0.023058
 C         12.845820   -0.890824   -0.116258
 C         12.937279    1.577195    0.044381
 C         14.234313   -1.035614   -0.038535
 C         14.326953    1.426477    0.121284
 C         12.313267    2.906131    0.080501
 C         14.987267    0.162179    0.076973
 C         14.862249   -2.366809   -0.078308
 S         15.499360    2.744051    0.203053
 C         12.535488    3.925698    0.977067
 S         11.178140    3.439340   -1.157056
 C         16.418302    0.309118    0.101515
 C         14.679165   -3.366482   -1.003288
 S         15.950740   -2.920177    1.190192
 C         16.821570    1.605010    0.168663
 C         11.801996    5.112441    0.689291
 H         13.188342    3.817898    1.836236
 C         11.018796    5.021630   -0.431970
 H         17.106610   -0.525185    0.057114
 C         15.407596   -4.557118   -0.712350
 H         14.054049   -3.245837   -1.881305
 C         16.147561   -4.486703    0.438253
 H         17.838221    1.975320    0.199007
 H         11.849002    6.008846    1.299307
 C         10.125529    6.065409   -1.032359
 H         15.385541   -5.441437   -1.341109
 C         17.023865   -5.538560    1.050528
 H          9.079392    5.736904   -1.066509
 H         10.172656    6.979750   -0.433240
 H         10.422326    6.317539   -2.057405
 H         16.682468   -5.821835    2.053405
 H         17.012025   -6.436553    0.425350
 H         18.064096   -5.203228    1.140845
 C          5.012553   -1.065768   -0.164457
 S          3.639564   -2.179417   -0.243544
 C          4.579276    0.256636   -0.062971
 C          2.498419   -0.836922   -0.142474
 C          3.180973    0.419604   -0.064591
 H          5.269839    1.084771    0.036959
 C          1.112672   -0.966413   -0.066137
 C          2.436422    1.641720    0.075301
 C          0.367888    0.256064    0.074978
 C          0.464954   -2.277406   -0.129023
 C          1.053287    1.513486    0.152876
 C          3.086808    2.953472    0.137032
 C         -1.028628    0.420680    0.076486
 C          0.720851   -3.311608   -1.004161
 S         -0.749070   -2.783801    1.046907
 S         -0.085750    2.858755    0.258635
 C          2.850165    3.979306    1.025403
 S          4.277668    3.466455   -1.058310
 C         -1.462227    1.746959    0.181521
 H         -1.722362   -0.403987   -0.027138
 C         -0.043808   -4.482477   -0.748202
 H          1.418385   -3.222218   -1.829297
 C         -0.887280   -4.369510    0.328140
 C          3.613343    5.151260    0.764630
 H          2.165872    3.884930    1.861052
 C          4.435146    5.045817   -0.328303
 C         -2.811889    2.176989    0.220195
 H          0.023922   -5.385020   -1.346749
 C         -1.826573   -5.395702    0.885437
 H          3.558339    6.049117    1.371499
 C          5.364546    6.075210   -0.896949
 C         -3.403120    3.441344    0.293121
 S         -4.123311    0.966107    0.170064
 H         -2.868749   -5.054420    0.851902
 H         -1.753946   -6.317990    0.301465
 H         -1.594964   -5.637215    1.929624
 H          5.106047    6.331753   -1.931206
 H          5.311336    6.990040   -0.299260
 H          6.405752    5.729583   -0.895693
 C         -2.929620    4.840155    0.372878
 C         -4.808383    3.449474    0.297880
 C         -5.415939    2.194313    0.230564
 N         -4.091176    5.625581    0.418820
 O         -1.797506    5.297018    0.401200
 C         -5.266006    4.856830    0.379071
 C         -4.070574    7.074654    0.504098
 O         -6.394315    5.319721    0.410993
 H         -5.105707    7.416891    0.530518
 H         -3.551099    7.396755    1.411286
 H         -3.561918    7.501651   -0.365099
 C         -6.774835    1.778895    0.205747
 S         -8.138055    2.913406    0.275845
 C         -7.221470    0.462200    0.122190
 C         -9.291947    1.582152    0.184335
 C         -8.626527    0.313954    0.122868
 H         -6.540235   -0.375331    0.038093
 C        -10.675399    1.727407    0.118484
 C         -9.384837   -0.893793    0.009855
 C        -11.432198    0.521633    0.003934
 C        -11.308281    3.053818    0.168736
 C        -10.773193   -0.744737   -0.056002
 C         -8.759386   -2.219430   -0.031899
 C        -12.843731    0.378220    0.002543
 C        -11.104320    4.060519    1.082414
 S        -12.434378    3.596549   -1.073200
 S        -11.935365   -2.068857   -0.136504
 C         -9.014840   -3.255051   -0.902693
 S         -7.579257   -2.735974    1.172948
 C        -13.287041   -0.927932   -0.073307
 H        -13.518960    1.222287    0.072674
 C        -11.845074    5.246163    0.804782
 H        -10.455941    3.947239    1.944291
 C        -12.616365    5.166249   -0.324663
 C         -8.274516   -4.437821   -0.621603
 H         -9.697405   -3.161959   -1.740025
 C         -7.450966   -4.330234    0.469336
 C        -14.659228   -1.357880   -0.097685
 H        -11.809600    6.134036    1.427883
 C        -13.513253    6.211236   -0.918430
 H         -8.346908   -5.344484   -1.213569
 C         -6.539964   -5.366864    1.054454
 C        -15.250347   -2.607714   -0.167218
 S        -15.956177   -0.140086   -0.029504
 H        -14.553902    5.870688   -0.979803
 H        -13.489041    7.112273   -0.298025
 H        -13.199696    6.491098   -1.931313
 H         -6.801913   -5.602406    2.092909
 H         -6.609635   -6.290231    0.471611
 H         -5.492490   -5.040351    1.047952
 C        -14.829649   -4.022475   -0.251002
 C        -16.674195   -2.581057   -0.163227
 C        -17.216838   -1.336294   -0.092756
 N        -16.025936   -4.767456   -0.290232
 O        -13.719495   -4.527527   -0.285369
 C        -17.182836   -3.972337   -0.241317
 H        -18.256374   -1.037854   -0.073942
 C        -16.045446   -6.217152   -0.374979
 O        -18.326541   -4.389140   -0.262042
 H        -17.089711   -6.531240   -0.390878
 H        -15.543227   -6.552647   -1.286878
 H        -15.538805   -6.656548    0.489041
