       154
S0: Total Energy = -10731.5307494
 C        -14.741871    0.658104   -0.131556
 C        -14.931236    1.973774    0.202156
 C        -16.246659    2.471677   -0.077186
 C        -17.083840    1.465777   -0.642435
 S        -16.206732   -0.048861   -0.838808
 C        -20.446464    4.750278   -0.592691
 C        -20.285488    3.448798   -0.939814
 C        -18.959377    2.950006   -0.670359
 C        -18.122475    3.957367   -0.105760
 S        -19.005228    5.473392    0.085032
 C        -16.769534    3.759169    0.199159
 C        -18.437056    1.662821   -0.943008
 H        -14.159385    2.572115    0.670413
 H        -21.070552    2.849975   -1.384117
 C        -15.954066    4.841315    0.775818
 C        -16.215327    5.603254    1.888781
 C        -15.232032    6.604933    2.142208
 C        -14.214310    6.626577    1.225698
 S        -14.462864    5.388243    0.016031
 H        -17.079543    5.436269    2.522557
 H        -15.275124    7.287516    2.985066
 C        -19.251587    0.576745   -1.515355
 C        -18.995912   -0.181064   -2.632297
 C        -19.975213   -1.188863   -2.878410
 C        -20.984166   -1.218551   -1.952642
 S        -20.731983    0.019396   -0.742902
 H        -18.139340   -0.006735   -3.274576
 H        -19.935538   -1.869657   -3.722885
 C        -13.021335    7.534265    1.176415
 H        -12.993048    8.123473    0.251936
 H        -13.054888    8.231983    2.018796
 H        -12.079436    6.975910    1.237873
 C        -22.170944   -2.133821   -1.893934
 H        -22.186268   -2.725767   -0.970898
 H        -22.141527   -2.829024   -2.738545
 H        -23.116972   -1.581360   -1.944318
 H        -21.340799    5.351779   -0.692669
 C        -13.506648   -0.096414   -0.021836
 C        -13.293910   -1.449374    0.204488
 S        -11.987987    0.812115   -0.203252
 C        -11.899223   -1.733319    0.235630
 C        -14.343655   -2.505073    0.426674
 C        -11.058430   -0.638204    0.048577
 S        -10.990251   -3.198331    0.491359
 H        -15.273154   -2.083569    0.815146
 H        -14.580344   -3.037894   -0.503168
 H        -13.984694   -3.249938    1.145684
 C         -9.686151   -0.949427    0.108989
 C         -9.463542   -2.299953    0.341228
 H         -8.888085   -0.225354   -0.009640
 C         -8.178275   -2.939156    0.449197
 S         -6.710963   -1.962314    0.245036
 C         -7.791285   -4.240148    0.693850
 C         -5.614686   -3.334092    0.501645
 C         -6.384002   -4.456797    0.722382
 C         -8.463273   -5.531646    0.948399
 C         -4.193197   -3.112253    0.451011
 C         -6.145588   -5.890245    0.993158
 N         -7.421388   -6.460796    1.116006
 O         -9.650876   -5.806563    1.012586
 S         -3.015973   -4.423133    0.687846
 C         -3.564684   -1.896426    0.218731
 O         -5.104358   -6.518614    1.100445
 C         -7.633716   -7.872050    1.387067
 C         -1.697569   -3.303951    0.468218
 C         -2.161093   -2.012248    0.227549
 H         -4.101814   -0.969710    0.051488
 H         -8.710252   -8.041261    1.424708
 H         -7.189254   -8.482369    0.595818
 H         -7.180958   -8.148474    2.343556
 C         -0.282472   -3.451829    0.504462
 S         -0.828908   -0.913487    0.008535
 C          0.337482   -2.230258    0.275881
 C          0.390366   -4.768525    0.786970
 H          1.370340   -4.637012    1.250982
 H         -0.224982   -5.370193    1.464874
 H          0.530578   -5.353360   -0.131077
 C          1.744923   -1.883366    0.221970
 C          2.301818   -0.666518    0.522454
 S          2.967462   -3.028608   -0.360605
 C          3.717039   -0.595836    0.313153
 H          1.721081    0.157648    0.918045
 C          4.244998   -1.833279   -0.160235
 C          4.585307    0.493468    0.577618
 C          5.608303   -2.062517   -0.377251
 C          5.948635    0.264205    0.360689
 C          4.101643    1.798778    1.057417
 C          6.476558   -0.973295   -0.112614
 C          6.091913   -3.367827   -0.857116
 S          7.226429    1.459280    0.561477
 C          4.518316    2.508971    2.157416
 S          2.887489    2.720910    0.177048
 C          7.891869   -0.902916   -0.321389
 C          5.675399   -4.077757   -1.957344
 S          7.305722   -4.290288    0.023373
 C          8.448942    0.313717   -0.020537
 C          3.868948    3.770256    2.305351
 H          5.254757    2.127359    2.856415
 C          2.956433    4.042227    1.320674
 H          8.472610   -1.727205   -0.716701
 C          6.324617   -5.339112   -2.105353
 H          4.939182   -3.695907   -2.656452
 C          7.236851   -5.611396   -1.120502
 C          9.856689    0.659781   -0.073142
 H          4.068469    4.455016    3.123533
 C          2.095409    5.259193    1.156217
 H          6.125208   -6.023688   -2.923714
 C          8.097689   -6.828495   -0.956064
 C         10.477904    1.880427   -0.302860
 S         11.021676   -0.657460    0.198007
 H          2.297955    5.779419    0.212313
 H          2.288594    5.959573    1.974502
 H          1.027610    5.009778    1.170241
 H          7.894881   -7.348853   -0.012289
 H          7.904594   -7.528716   -1.774505
 H          9.165518   -6.579206   -0.969831
 C         11.892925    1.731502   -0.264428
 C          9.806380    3.197101   -0.588511
 C         12.354970    0.439907   -0.020918
 S         13.212736    2.849090   -0.483902
 H          8.825497    3.065446   -1.050536
 H          9.668462    3.785028    0.327917
 H         10.421485    3.795796   -1.269288
 C         13.758504    0.322963   -0.009677
 C         14.388568    1.537692   -0.243117
 H         14.294433   -0.603945    0.160246
 C         15.810854    1.756972   -0.291595
 S         16.902725    0.382115   -0.031841
 C         16.584363    2.876816   -0.511934
 C         18.373244    1.354695   -0.230523
 C         17.991464    2.655545   -0.479042
 C         16.347977    4.309969   -0.784406
 C         19.657680    0.712572   -0.114245
 C         18.665069    3.946188   -0.733925
 N         17.628867    4.877094   -0.903975
 O         15.303746    4.932816   -0.893594
 S         21.186853    1.604615   -0.283265
 C         19.878189   -0.633209    0.137249
 O         19.851275    4.227557   -0.798861
 C         17.867049    6.283964   -1.176186
 C         22.093408    0.143486   -0.010295
 C         21.252237   -0.947520    0.194599
 H         19.079107   -1.353353    0.272813
 H         16.896066    6.776470   -1.236206
 H         18.461403    6.730245   -0.374005
 H         18.402670    6.404431   -2.122262
 C         23.491539   -0.156266    0.043784
 S         22.181683   -2.402178    0.465041
 C         23.669700   -1.492253    0.293327
 C         24.594419    0.846685   -0.145175
 H         24.614124   -2.012608    0.389736
 H         25.576582    0.374079   -0.058560
 H         24.531656    1.322020   -1.131928
 H         24.534452    1.646098    0.603765
       154
T1: Total Energy = -10731.4808062
 C         14.688780    0.685040   -0.041048
 C         14.842362    1.980383   -0.468615
 C         16.161601    2.510087   -0.294133
 C         17.043947    1.552203    0.286385
 S         16.203478    0.041795    0.623792
 C         20.346765    4.868771   -0.148365
 C         20.224599    3.589661    0.287068
 C         18.894425    3.058661    0.120475
 C         18.012975    4.018009   -0.459795
 S         18.860681    5.529958   -0.791367
 C         16.649024    3.784530   -0.678190
 C         18.407517    1.784386    0.500320
 H         14.038764    2.539580   -0.931766
 H         21.041187    3.029640    0.725100
 C         15.787253    4.817885   -1.275989
 C         15.979269    5.514212   -2.444754
 C         14.967804    6.484901   -2.707333
 C         13.997266    6.548410   -1.742819
 S         14.327020    5.389750   -0.475100
 H         16.812897    5.320481   -3.111043
 H         14.956838    7.115133   -3.590997
 C         19.268692    0.746888    1.094154
 C         19.085122    0.057849    2.268339
 C         20.092377   -0.919686    2.523512
 C         21.051003   -0.994746    1.548162
 S         20.714753    0.160905    0.278949
 H         18.261185    0.261368    2.943860
 H         20.108741   -1.546208    3.409732
 C         12.792866    7.440507   -1.687515
 H         12.801085    8.084993   -0.800268
 H         12.771777    8.085459   -2.571334
 H         11.858898    6.866102   -1.666421
 C         22.247955   -1.896197    1.482718
 H         22.224161   -2.544924    0.598856
 H         22.274889   -2.537052    2.369351
 H         23.186013   -1.329170    1.447516
 H         21.235629    5.486296   -0.134017
 C         13.463223   -0.085474   -0.038426
 C         13.260104   -1.462196   -0.071465
 S         11.934032    0.824798    0.020025
 C         11.872333   -1.760461   -0.057280
 C         14.321540   -2.528076   -0.141146
 C         11.018370   -0.656078   -0.021954
 S         10.976950   -3.257558   -0.096909
 H         15.199296   -2.195403   -0.700509
 H         14.657983   -2.828676    0.859199
 H         13.928056   -3.422775   -0.635122
 C          9.653284   -0.981753   -0.028714
 C          9.437469   -2.360077   -0.066312
 H          8.848554   -0.256031   -0.008969
 C          8.163149   -3.004156   -0.076397
 S          6.688121   -2.004973   -0.019202
 C          7.776272   -4.337643   -0.124986
 C          5.588438   -3.417758   -0.065650
 C          6.387105   -4.572204   -0.119995
 C          8.470072   -5.647924   -0.182761
 C          4.200465   -3.215096   -0.043958
 C          6.162125   -6.025727   -0.172310
 N          7.446877   -6.602358   -0.209754
 O          9.663850   -5.904766   -0.203912
 S          3.020225   -4.560444   -0.101780
 C          3.540447   -1.956506    0.023688
 O          5.128389   -6.678720   -0.183870
 C          7.672300   -8.035314   -0.267780
 C          1.686810   -3.415063   -0.034544
 C          2.166975   -2.078940    0.029106
 H          4.078499   -1.016809    0.066795
 H          8.750110   -8.197837   -0.302494
 H          7.252952   -8.525107    0.615915
 H          7.204858   -8.458770   -1.161363
 C          0.309584   -3.569313   -0.031356
 S          0.835748   -0.949401    0.101802
 C         -0.351517   -2.299875    0.038840
 C         -0.379517   -4.904064   -0.096340
 H         -1.031079   -4.981787   -0.974224
 H          0.355140   -5.711979   -0.156539
 H         -0.998356   -5.084563    0.790280
 C         -1.717523   -1.979252    0.064583
 C         -2.265631   -0.681349    0.107410
 S         -3.021803   -3.192988    0.051444
 C         -3.668773   -0.628892    0.139504
 H         -1.643578    0.204476    0.088235
 C         -4.262012   -1.936028    0.093627
 C         -4.506578    0.534920    0.149095
 C         -5.628905   -2.162762    0.033034
 C         -5.880286    0.303211    0.087570
 C         -3.963245    1.896743    0.216460
 C         -6.466328   -0.999174    0.038117
 C         -6.178459   -3.526226   -0.026017
 S         -7.126599    1.547991    0.144403
 C         -4.269302    2.975166   -0.581203
 S         -2.823657    2.388622    1.468338
 C         -7.878960   -0.949073    0.067489
 C         -5.925663   -4.582066    0.816521
 S         -7.254676   -4.041607   -1.321759
 C         -8.415548    0.329693    0.121270
 C         -3.597749    4.174933   -0.207326
 H         -4.937002    2.902724   -1.432785
 C         -2.777087    4.034385    0.881176
 H         -8.496521   -1.838702    0.077145
 C         -6.589649   -5.786970    0.441311
 H         -5.298338   -4.491206    1.696710
 C         -7.350855   -5.670117   -0.691599
 C         -9.808614    0.670115    0.131798
 H         -3.713106    5.115865   -0.735768
 C         -1.923274    5.072278    1.546499
 H         -6.510770   -6.713900    1.000401
 C         -8.179707   -6.718804   -1.371725
 C        -10.443273    1.899915    0.343975
 S        -10.979460   -0.644656   -0.166909
 H         -2.207169    5.224674    2.594690
 H         -2.032808    6.028336    1.025644
 H         -0.861507    4.798547    1.531256
 H         -7.840853   -6.906326   -2.397664
 H         -8.110174   -7.659625   -0.817254
 H         -9.237492   -6.434155   -1.422926
 C        -11.848809    1.755109    0.267811
 C         -9.769957    3.215966    0.628958
 C        -12.310922    0.462257    0.008426
 S        -13.174066    2.878031    0.442493
 H         -9.055155    3.137566    1.454792
 H         -9.225107    3.592102   -0.245287
 H        -10.510498    3.972742    0.903795
 C        -13.708752    0.350058   -0.052485
 C        -14.345397    1.569521    0.160772
 H        -14.241913   -0.574532   -0.242133
 C        -15.763830    1.791938    0.161980
 S        -16.852882    0.421231   -0.138126
 C        -16.541832    2.915860    0.359038
 C        -18.325215    1.400695    0.011281
 C        -17.946305    2.699889    0.276730
 C        -16.309424    4.346274    0.644580
 C        -19.607136    0.765368   -0.150892
 C        -18.624123    3.992813    0.511296
 N        -17.591509    4.919036    0.720353
 O        -15.266952    4.964457    0.793779
 S        -21.138337    1.660758   -0.018686
 C        -19.824409   -0.577531   -0.422340
 O        -19.811000    4.277747    0.535047
 C        -17.833212    6.325977    0.988866
 C        -22.040553    0.205085   -0.332034
 C        -21.196789   -0.886661   -0.523235
 H        -19.023819   -1.298870   -0.541543
 H        -16.862796    6.813879    1.084934
 H        -18.396771    6.777655    0.167703
 H        -18.401469    6.445767    1.915810
 C        -23.437208   -0.089518   -0.430659
 S        -22.122141   -2.335405   -0.836462
 C        -23.611817   -1.422354   -0.699311
 C        -24.542310    0.914919   -0.263729
 H        -24.554533   -1.938605   -0.828825
 H        -25.522848    0.446268   -0.383705
 H        -24.506985    1.380088    0.729212
 H        -24.458247    1.721651   -1.002429
       154
S1: Total Energy = -10731.4641829
 C         14.694015    0.683812    0.015456
 C         14.814571    2.038591   -0.206577
 C         16.146384    2.542786   -0.107276
 C         17.083998    1.509067    0.190552
 S         16.275973   -0.045913    0.366830
 C         20.345066    4.884430   -0.074031
 C         20.261533    3.547748    0.147504
 C         18.916029    3.041094    0.056327
 C         17.980969    4.076644   -0.239433
 S         18.799869    5.631396   -0.407353
 C         16.597864    3.871329   -0.324714
 C         18.464300    1.714744    0.271821
 H         13.969587    2.663412   -0.468132
 H         21.118869    2.928851    0.380435
 C         15.681277    4.982448   -0.623880
 C         15.747319    5.885838   -1.657703
 C         14.720229    6.874251   -1.623103
 C         13.862772    6.745456   -0.562455
 S         14.321788    5.377140    0.424638
 H         16.499744    5.829477   -2.436811
 H         14.615778    7.656522   -2.368275
 C         19.381212    0.600878    0.570400
 C         19.338845   -0.277556    1.625766
 C         20.359266   -1.273651    1.584401
 C         21.187052   -1.173774    0.497769
 S         20.707047    0.175273   -0.506712
 H         18.608332   -0.199041    2.423773
 H         20.479929   -2.040197    2.343374
 C         12.678474    7.595950   -0.211038
 H         12.788171    8.063220    0.775005
 H         12.566377    8.394339   -0.950997
 H         11.747986    7.015689   -0.196692
 C         22.355988   -2.039416    0.131850
 H         22.213382   -2.531530   -0.837762
 H         22.487433   -2.819032    0.888447
 H         23.288393   -1.465023    0.073525
 H         21.236326    5.498522   -0.062952
 C         13.473754   -0.080568    0.018772
 C         13.265052   -1.462708   -0.017413
 S         11.939377    0.827563    0.079696
 C         11.882636   -1.760291   -0.002714
 C         14.328463   -2.527540   -0.081390
 C         11.025452   -0.654639    0.037785
 S         10.983684   -3.258172   -0.036445
 H         15.096890   -2.292311   -0.824000
 H         14.830787   -2.658839    0.884800
 H         13.887001   -3.490849   -0.354231
 C          9.663406   -0.976837    0.038304
 C          9.443733   -2.358267    0.000955
 H          8.859543   -0.250379    0.063624
 C          8.173300   -3.000307   -0.007332
 S          6.695270   -2.001717    0.030309
 C          7.782085   -4.335082   -0.041431
 C          5.599050   -3.412352   -0.002146
 C          6.390580   -4.561949   -0.038312
 C          8.467753   -5.646588   -0.079993
 C          4.198870   -3.202780    0.009565
 C          6.158991   -6.018359   -0.073067
 N          7.438472   -6.599897   -0.097983
 O          9.659434   -5.913472   -0.094571
 S          3.022644   -4.546318   -0.032124
 C          3.549311   -1.955931    0.051098
 O          5.120718   -6.663491   -0.080226
 C          7.659700   -8.033960   -0.137348
 C          1.691982   -3.406810    0.006185
 C          2.162573   -2.079895    0.049096
 H          4.083907   -1.013727    0.080491
 H          8.737305   -8.199783   -0.161577
 H          7.232022   -8.512153    0.748755
 H          7.198380   -8.467093   -1.029582
 C          0.299760   -3.560658    0.000628
 S          0.832089   -0.955965    0.090574
 C         -0.347761   -2.303840    0.040862
 C         -0.381562   -4.901115   -0.047653
 H         -1.041898   -4.990294   -0.917679
 H          0.357655   -5.704658   -0.110024
 H         -0.988994   -5.080481    0.847189
 C         -1.726904   -1.974305    0.045769
 C         -2.270450   -0.685705    0.027212
 S         -3.021404   -3.190382    0.085909
 C         -3.675506   -0.632564    0.053233
 H         -1.650052    0.199578   -0.032186
 C         -4.266632   -1.940034    0.069359
 C         -4.514478    0.530905   -0.001038
 C         -5.634487   -2.172948    0.014487
 C         -5.883849    0.296285   -0.056091
 C         -3.969863    1.893818   -0.004060
 C         -6.472964   -1.010042   -0.039764
 C         -6.180835   -3.536697    0.018892
 S         -7.130503    1.544278   -0.069821
 C         -4.272612    2.928627   -0.859117
 S         -2.833888    2.450414    1.223640
 C         -7.880487   -0.957731   -0.013366
 C         -5.896191   -4.563671    0.888303
 S         -7.294272   -4.100711   -1.224882
 C         -8.422054    0.327321   -0.030315
 C         -3.601490    4.145814   -0.547247
 H         -4.937147    2.811328   -1.708147
 C         -2.784596    4.062622    0.550257
 H         -8.499187   -1.844636    0.042294
 C         -6.564422   -5.782580    0.574414
 H         -5.245380   -4.440468    1.747125
 C         -7.360411   -5.707215   -0.538527
 C         -9.806359    0.660915   -0.024155
 H         -3.714070    5.057526   -1.125145
 C         -1.933129    5.134233    1.162747
 H         -6.463974   -6.689706    1.161697
 C         -8.202273   -6.782434   -1.158182
 C        -10.445834    1.915481    0.015755
 S        -10.986355   -0.683680   -0.072036
 H         -2.220434    5.341206    2.200574
 H         -2.041410    6.061473    0.592018
 H         -0.871293    4.860368    1.165210
 H         -7.895016   -6.999329   -2.188226
 H         -8.107224   -7.704776   -0.577236
 H         -9.263287   -6.506603   -1.183884
 C        -11.844121    1.763339    0.011047
 C         -9.765101    3.256560    0.062638
 C        -12.314221    0.441593   -0.030147
 S        -13.169259    2.904063    0.047612
 H         -9.103570    3.346935    0.931574
 H         -9.159580    3.436809   -0.833268
 H        -10.504772    4.059629    0.126233
 C        -13.707023    0.323271   -0.030924
 C        -14.346232    1.566926    0.009136
 H        -14.243777   -0.617933   -0.059688
 C        -15.755760    1.787470    0.021610
 S        -16.855455    0.387238    0.004273
 C        -16.533946    2.936220    0.046910
 C        -18.324282    1.387690    0.029732
 C        -17.935493    2.713772    0.050680
 C        -16.294885    4.390903    0.069179
 C        -19.607966    0.743367    0.027022
 C        -18.610320    4.030913    0.075475
 N        -17.576189    4.975470    0.085587
 O        -15.249774    5.024405    0.073785
 S        -21.137237    1.654814    0.053041
 C        -19.833803   -0.627375    0.005973
 O        -19.797468    4.317053    0.085686
 C        -17.811408    6.408124    0.110482
 C        -22.046833    0.169794    0.035065
 C        -21.207225   -0.942508    0.010640
 H        -19.036331   -1.361516   -0.011513
 H        -16.838610    6.900780    0.112347
 H        -18.381511    6.716527   -0.770587
 H        -18.370144    6.687524    1.008360
 C        -23.444609   -0.131922    0.040221
 S        -22.140547   -2.420243   -0.006808
 C        -23.626441   -1.491006    0.019274
 C        -24.545477    0.890629    0.065133
 H        -24.572233   -2.017780    0.017765
 H        -25.528656    0.412289    0.062899
 H        -24.477214    1.523325    0.958786
 H        -24.488345    1.554306   -0.806547
