       146
S0: Total Energy = -9474.78351413
 C        -21.115046    1.832394    0.456675
 C        -19.835438    1.209455    0.384548
 C        -19.511429   -0.129257    0.584307
 C        -22.350104    1.244401    0.712720
 C        -20.367595   -1.275851    0.963565
 C        -22.695023   -0.159791    1.026541
 N        -21.739014   -1.168796    1.273699
 O        -23.883943   -0.453778    1.130801
 O        -19.843201   -2.384571    1.048963
 C        -18.126935   -0.389166    0.390384
 C        -23.422397    2.178892    0.645536
 H        -17.723682   -1.387264    0.499614
 H        -24.447980    1.872397    0.803132
 C        -23.047495    3.470822    0.358268
 C        -17.369833    0.712212    0.054878
 S        -18.408090    2.133822   -0.033314
 S        -21.300195    3.547465    0.155521
 C        -23.894249    4.643551    0.272205
 C        -23.679597    5.877548   -0.326904
 S        -25.488988    4.578695    1.016602
 C        -24.808320    6.743090   -0.184993
 C        -25.850911    6.189468    0.502786
 H        -24.831781    7.747236   -0.595569
 H        -26.809576    6.631076    0.739835
 C        -15.945549    0.767279   -0.174708
 C        -15.138923    1.784894   -0.676065
 S        -14.984389   -0.657671    0.213501
 C        -13.775636    1.398568   -0.754130
 C        -13.507138    0.114245   -0.325232
 H        -13.007337    2.061909   -1.138628
 C        -12.245701   -0.581621   -0.278396
 C        -11.994399   -1.911335    0.006472
 S        -10.738887    0.263253   -0.605748
 C        -10.625915   -2.257800   -0.047380
 H        -12.779735   -2.624797    0.232165
 C         -9.795054   -1.202101   -0.374970
 H        -10.259367   -3.262934    0.131609
 C        -15.605627    3.148973   -1.113681
 H        -16.412704    3.089980   -1.852990
 H        -15.975683    3.745374   -0.270441
 H        -14.779841    3.703488   -1.568326
 C        -22.434479    6.301060   -1.063038
 H        -21.603052    6.509280   -0.377333
 H        -22.092192    5.536135   -1.768700
 H        -22.623639    7.216986   -1.630667
 C        -22.328344   -2.435490    1.762168
 H        -21.584344   -2.950024    2.364727
 H        -23.214345   -2.198644    2.344439
 H        -22.612952   -3.079073    0.924178
 C         -8.361816   -1.188303   -0.527496
 S         -7.388868   -2.559242   -0.035789
 C         -7.551296   -0.191709   -1.032931
 C         -5.900450   -1.767451   -0.548685
 C         -6.165652   -0.496898   -1.051933
 H         -7.941879    0.749283   -1.407087
 C         -4.658424   -2.487478   -0.398657
 C         -5.144636    0.475277   -1.583350
 C         -4.488444   -3.812892   -0.061276
 S         -3.081772   -1.725785   -0.600408
 H         -4.477598    0.841754   -0.793103
 H         -4.516172    0.027327   -2.361658
 H         -5.642895    1.345566   -2.019860
 C         -3.135562   -4.236028    0.047114
 H         -5.306213   -4.500701    0.108992
 C         -2.233036   -3.211175   -0.224827
 C         -2.897089   -5.647361    0.424585
 C         -0.810519   -3.267807   -0.253282
 N         -1.620433   -6.188754    0.684433
 O         -3.873654   -6.381036    0.562944
 C          0.017379   -4.363108   -0.021828
 S          0.138535   -1.852704   -0.658925
 C         -0.318463   -5.753246    0.359431
 C         -1.662043   -7.572212    1.208579
 C          1.394297   -4.048998   -0.184821
 C          1.655909   -2.739239   -0.524365
 O          0.598948   -6.566917    0.445181
 H         -0.761908   -7.744635    1.792551
 H         -2.555439   -7.680997    1.817228
 H         -1.698066   -8.296455    0.389125
 H          2.160730   -4.800987   -0.051282
 C          2.944622   -2.118042   -0.717373
 C          3.291298   -0.875280   -1.239829
 S          4.382106   -3.017095   -0.237482
 C          4.696295   -0.676699   -1.262163
 C          2.332289    0.167596   -1.752549
 C          5.442300   -1.728633   -0.769849
 H          5.146995    0.228004   -1.657549
 H          1.639942   -0.240927   -2.497520
 H          1.728269    0.600742   -0.945479
 H          2.881867    0.987018   -2.224498
 C          6.874069   -1.850226   -0.653823
 C          7.632350   -2.970023   -0.365860
 S          7.916941   -0.452453   -0.876927
 C          9.023437   -2.724855   -0.336678
 H          7.197031   -3.949521   -0.199262
 C          9.364716   -1.411149   -0.601171
 H          9.759721   -3.497860   -0.143931
 C         10.672404   -0.806996   -0.658011
 S         12.094777   -1.684375   -0.133681
 C         11.028098    0.457811   -1.081664
 C         13.151419   -0.330076   -0.524354
 C         12.416112    0.745877   -1.012151
 H         10.306165    1.175248   -1.458656
 C         14.570454   -0.488478   -0.308308
 C         12.977276    2.074821   -1.447541
 C         15.262147   -1.656899   -0.075686
 S         15.684411    0.876038   -0.254019
 H         13.341043    2.663970   -0.596309
 H         13.812671    1.959041   -2.147082
 H         12.204814    2.666700   -1.946876
 C         16.656721   -1.493334    0.150789
 H         14.802941   -2.636631   -0.068853
 C         17.055590   -0.161189    0.080358
 C         17.446202   -2.716274    0.417707
 C         18.366802    0.379094    0.210897
 N         18.809145   -2.710482    0.782777
 O         16.868835   -3.800252    0.363757
 C         19.562279   -0.295246    0.443357
 S         18.652590    2.098870    0.040966
 C         19.822063   -1.735808    0.662794
 C         19.320243   -4.044461    1.169453
 C         20.684053    0.578103    0.469719
 C         20.389133    1.909988    0.275100
 O         20.989214   -2.099226    0.792905
 H         20.167077   -3.907054    1.836382
 H         18.517330   -4.590785    1.656812
 H         19.648485   -4.604229    0.288317
 H         21.685406    0.200016    0.627806
 C         21.303936    3.027307    0.282052
 C         21.125458    4.357304   -0.083886
 S         22.955804    2.747875    0.829344
 C         22.316892    5.117806    0.060887
 C         19.848630    4.970225   -0.597795
 C         23.404492    4.412923    0.530274
 H         22.368403    6.169924   -0.200635
 H         19.440291    4.416381   -1.450990
 H         19.070165    5.003402    0.174738
 H         20.027708    5.998360   -0.925048
 C         24.751510    4.875861    0.782995
 C         25.898118    4.137298    0.992893
 S         25.115860    6.594130    0.863572
 C         27.056827    4.934769    1.209023
 H         25.911943    3.052561    0.975341
 C         26.795397    6.277202    1.163348
 H         28.045111    4.524436    1.384604
 H         27.483581    7.102424    1.287958
       146
T1: Total Energy = -9474.73878977
 C         21.314229    1.504566   -0.015836
 C         20.000617    0.953809    0.013407
 C         19.623826   -0.384479    0.082964
 C         22.534002    0.836024    0.033654
 C         20.450157   -1.612777    0.105203
 C         22.830202   -0.612758    0.080441
 N         21.852088   -1.622279   -0.048142
 O         24.004323   -0.960407    0.188675
 O         19.874945   -2.692953    0.221934
 C         18.213041   -0.551223    0.129830
 C         23.643837    1.727746    0.038795
 H         17.767986   -1.535439    0.193587
 H         24.660436    1.361120    0.091187
 C         23.315196    3.062454   -0.017798
 C         17.486413    0.619530    0.088731
 S         18.589883    1.991479   -0.003134
 S         21.563868    3.237043   -0.074030
 C         24.214362    4.196997   -0.075973
 C         23.996138    5.544344    0.179620
 S         25.891939    3.910868   -0.530032
 C         25.186637    6.318345    0.015989
 C         26.279087    5.586926   -0.355481
 H         25.215299    7.390564    0.180147
 H         27.288061    5.931511   -0.538395
 C         16.051187    0.766642    0.098689
 C         15.247880    1.903373    0.152422
 S         15.064310   -0.692255    0.036969
 C         13.866304    1.584079    0.150883
 C         13.577938    0.234147    0.097021
 H         13.096354    2.347746    0.196747
 C         12.295830   -0.419359    0.084215
 C         12.009323   -1.774149    0.096493
 S         10.805764    0.514534    0.046701
 C         10.630249   -2.066387    0.079587
 H         12.778385   -2.538741    0.122853
 C          9.819044   -0.943065    0.053993
 H         10.237001   -3.077299    0.089423
 C         15.734321    3.327830    0.214467
 H         16.400318    3.497878    1.068557
 H         16.282559    3.614011   -0.691548
 H         14.887320    4.012293    0.314993
 C         22.688433    6.167817    0.595007
 H         21.974148    6.216051   -0.237017
 H         22.206481    5.613212    1.407732
 H         22.851390    7.192329    0.942335
 C         22.424023   -2.983049   -0.155729
 H         21.705651   -3.616858   -0.668295
 H         23.359118   -2.919534   -0.705777
 H         22.623058   -3.399544    0.836423
 C          8.385212   -0.865385    0.033214
 S          7.400309   -2.315916    0.016833
 C          7.573126    0.256057    0.021243
 C          5.904071   -1.377533   -0.003107
 C          6.184773   -0.006515    0.000564
 H          7.969826    1.266330    0.029117
 C          4.657670   -2.083265   -0.019513
 C          5.164694    1.101583   -0.012956
 C          4.469743   -3.457459    0.002107
 S          3.085109   -1.276947   -0.082704
 H          4.540219    1.073557   -0.914011
 H          4.493499    1.052260    0.852677
 H          5.663793    2.074442    0.011501
 C          3.127590   -3.886698   -0.038887
 H          5.282356   -4.171223    0.041593
 C          2.218806   -2.811071   -0.081632
 C          2.884240   -5.343587   -0.050176
 C          0.819295   -2.848016   -0.089507
 N          1.607541   -5.930070   -0.208061
 O          3.852842   -6.096636    0.038419
 C         -0.029221   -3.976990   -0.043949
 S         -0.131388   -1.362667   -0.113398
 C          0.304053   -5.422295   -0.037820
 C          1.649305   -7.401433   -0.359793
 C         -1.384715   -3.634470   -0.017523
 C         -1.663549   -2.260221   -0.054893
 O         -0.618228   -6.227832    0.069527
 H          0.763193   -7.715379   -0.905124
 H          2.556663   -7.664741   -0.896354
 H          1.658026   -7.893469    0.617629
 H         -2.154017   -4.394643    0.022646
 C         -2.936046   -1.656975   -0.053858
 C         -3.317290   -0.283097   -0.089064
 S         -4.375586   -2.695103   -0.003593
 C         -4.694084   -0.111089   -0.076284
 C         -2.358800    0.876273   -0.135656
 C         -5.457697   -1.296910   -0.031483
 H         -5.158439    0.869608   -0.099221
 H         -1.695860    0.893973    0.737447
 H         -1.724233    0.846392   -1.029309
 H         -2.910199    1.820475   -0.152374
 C         -6.850101   -1.440825   -0.011450
 C         -7.611989   -2.631470    0.034815
 S         -7.934714   -0.037153   -0.046186
 C         -8.981066   -2.429590    0.041678
 H         -7.150695   -3.612655    0.062491
 C         -9.369217   -1.074613    0.001042
 H         -9.704027   -3.237596    0.075353
 C        -10.670784   -0.533242   -0.005751
 S        -12.101609   -1.562481    0.037889
 C        -11.061319    0.810927   -0.046435
 C        -13.183532   -0.164565    0.002315
 C        -12.443615    1.034152   -0.042794
 H        -10.341517    1.622366   -0.078032
 C        -14.592070   -0.394377    0.022213
 C        -13.030594    2.420301   -0.082396
 C        -15.243699   -1.618316    0.082456
 S        -15.794377    0.901255   -0.035396
 H        -13.653552    2.575776   -0.971340
 H        -13.653991    2.626163    0.795814
 H        -12.232483    3.167539   -0.103703
 C        -16.654999   -1.549909    0.075729
 H        -14.730099   -2.569634    0.128194
 C        -17.130114   -0.235748    0.018839
 C        -17.393444   -2.834049    0.114365
 C        -18.472516    0.217137    0.028772
 N        -18.793624   -2.941393   -0.009302
 O        -16.741454   -3.871258    0.215549
 C        -19.645009   -0.537762    0.104805
 S        -18.846464    1.930838   -0.011627
 C        -19.837700   -2.003231    0.146003
 C        -19.271338   -4.338400   -0.111923
 C        -20.810553    0.270854    0.139459
 C        -20.582018    1.630509    0.080930
 O        -20.981819   -2.434490    0.275768
 H        -20.219313   -4.338286   -0.643250
 H        -18.521114   -4.918844   -0.641741
 H        -19.421144   -4.771199    0.881885
 H        -21.796116   -0.170439    0.209086
 C        -21.562126    2.687660    0.067694
 C        -21.418739    4.070358    0.147296
 S        -23.263992    2.245765   -0.066690
 C        -22.669346    4.741851    0.117336
 C        -20.117321    4.819488    0.269191
 C        -23.771336    3.919156    0.013979
 H        -22.748472    5.821848    0.190048
 H        -19.524247    4.477569    1.125444
 H        -19.494265    4.707757   -0.626877
 H        -20.307594    5.888070    0.403883
 C        -25.172162    4.273427   -0.036664
 C        -26.278736    3.458044    0.089674
 S        -25.675145    5.938896   -0.293949
 C        -27.514403    4.156002   -0.011895
 H        -26.207028    2.389851    0.265585
 C        -27.351936    5.499694   -0.214281
 H        -28.483992    3.677142    0.068384
 H        -28.112163    6.261473   -0.322958
       146
S1: Total Energy = -9474.72354355
 C         21.306367    1.501644   -0.010047
 C         19.994434    0.958323   -0.006863
 C         19.609904   -0.382443    0.047628
 C         22.525610    0.827144    0.051894
 C         20.432300   -1.614128    0.074609
 C         22.816076   -0.621927    0.086627
 N         21.835365   -1.627374   -0.062539
 O         23.987528   -0.976603    0.204637
 O         19.851773   -2.692860    0.178587
 C         18.202742   -0.544663    0.067039
 C         23.636362    1.714018    0.081700
 H         17.753904   -1.528266    0.112431
 H         24.650486    1.341816    0.143729
 C         23.315182    3.052361    0.032077
 C         17.475264    0.631006    0.019607
 S         18.586167    2.002258   -0.041709
 S         21.564417    3.235460   -0.047196
 C         24.221238    4.180249    0.004780
 C         23.993149    5.536988    0.201965
 S         25.926833    3.875691   -0.318010
 C         25.195901    6.301428    0.099486
 C         26.308469    5.555570   -0.170030
 H         25.218027    7.378300    0.230826
 H         27.329554    5.891294   -0.291999
 C         16.047483    0.774544    0.012767
 C         15.238695    1.917347   -0.015007
 S         15.058746   -0.686376    0.041915
 C         13.864382    1.601678   -0.010993
 C         13.569770    0.244611    0.018511
 H         13.094066    2.366154   -0.028550
 C         12.295066   -0.396697    0.027699
 C         12.003490   -1.759336    0.062972
 S         10.802393    0.539089   -0.011269
 C         10.634328   -2.050591    0.059054
 H         12.774270   -2.522112    0.091281
 C          9.813781   -0.922080    0.020531
 H         10.239967   -3.060729    0.083919
 C         15.729799    3.340776   -0.045070
 H         16.344430    3.581107    0.830643
 H         16.333685    3.547429   -0.936825
 H         14.882824    4.032397   -0.053594
 C         22.663081    6.178636    0.501907
 H         21.990534    6.155548   -0.365073
 H         22.143992    5.684667    1.331139
 H         22.803348    7.228246    0.776337
 C         22.404608   -2.988852   -0.174496
 H         21.687766   -3.618090   -0.694724
 H         23.343013   -2.924547   -0.718897
 H         22.597497   -3.411417    0.816326
 C          8.393282   -0.853266    0.003351
 S          7.406428   -2.307638    0.022334
 C          7.572043    0.272219   -0.032190
 C          5.907594   -1.368415   -0.017836
 C          6.193192    0.011326   -0.044610
 H          7.970174    1.281832   -0.048741
 C          4.667757   -2.065577   -0.019823
 C          5.169655    1.114865   -0.081392
 C          4.479641   -3.445062    0.021472
 S          3.088667   -1.264448   -0.088931
 H          4.540024    1.060489   -0.977566
 H          4.503563    1.085333    0.789112
 H          5.665809    2.089516   -0.085224
 C          3.142962   -3.876605   -0.009939
 H          5.294327   -4.156156    0.067926
 C          2.228275   -2.803402   -0.064198
 C          2.903077   -5.335174   -0.001719
 C          0.830134   -2.848700   -0.064957
 N          1.629816   -5.925903   -0.160177
 O          3.873461   -6.084627    0.100918
 C         -0.013227   -3.979246   -0.008707
 S         -0.127647   -1.368717   -0.093644
 C          0.321947   -5.419777    0.003513
 C          1.677651   -7.397801   -0.300340
 C         -1.374286   -3.636113    0.021497
 C         -1.652402   -2.270462   -0.023254
 O         -0.597075   -6.230279    0.112822
 H          0.788684   -7.720255   -0.835728
 H          2.582026   -7.661473   -0.842113
 H          1.697212   -7.882590    0.680660
 H         -2.141240   -4.398428    0.069257
 C         -2.933179   -1.657229   -0.023221
 C         -3.307961   -0.296255   -0.059952
 S         -4.368694   -2.691022    0.027221
 C         -4.697724   -0.124273   -0.047436
 C         -2.356008    0.869045   -0.107297
 C         -5.447741   -1.301650   -0.001820
 H         -5.160594    0.857183   -0.071300
 H         -1.689743    0.889470    0.763296
 H         -1.724092    0.845739   -1.003160
 H         -2.912544    1.810361   -0.120034
 C         -6.856472   -1.457838    0.017921
 C         -7.605726   -2.639087    0.067317
 S         -7.937329   -0.062009   -0.024571
 C         -8.986779   -2.437364    0.070839
 H         -7.145998   -3.620898    0.100250
 C         -9.368167   -1.093021    0.024236
 H         -9.707244   -3.247406    0.107050
 C        -10.677391   -0.540430    0.011986
 S        -12.105469   -1.565348    0.048458
 C        -11.060796    0.798226   -0.029677
 C        -13.186125   -0.169073    0.009161
 C        -12.447759    1.025638   -0.031933
 H        -10.340253    1.609274   -0.057365
 C        -14.596935   -0.399037    0.022268
 C        -13.029720    2.413880   -0.072989
 C        -15.249829   -1.621445    0.080441
 S        -15.796237    0.898312   -0.044671
 H        -13.646333    2.573363   -0.965679
 H        -13.658130    2.620726    0.801429
 H        -12.229002    3.158512   -0.087832
 C        -16.660613   -1.552359    0.064399
 H        -14.737580   -2.573360    0.130964
 C        -17.134715   -0.236599    0.003220
 C        -17.400187   -2.835266    0.099879
 C        -18.474439    0.217014    0.007630
 N        -18.798806   -2.941614   -0.043823
 O        -16.750732   -3.873015    0.213521
 C        -19.649872   -0.538021    0.071695
 S        -18.847243    1.932388   -0.026129
 C        -19.844434   -2.003056    0.100376
 C        -19.276827   -4.337654   -0.155617
 C        -20.813325    0.270748    0.101812
 C        -20.584549    1.632244    0.052127
 O        -20.990654   -2.434959    0.211025
 H        -20.212607   -4.336380   -0.708328
 H        -18.516015   -4.920200   -0.667637
 H        -19.450518   -4.769147    0.834909
 H        -21.799699   -0.170603    0.159565
 C        -21.564218    2.686665    0.043342
 C        -21.420341    4.072556    0.088731
 S        -23.269857    2.242060   -0.035252
 C        -22.670516    4.742237    0.073163
 C        -20.116750    4.824055    0.160467
 C        -23.775635    3.917504    0.015315
 H        -22.748104    5.823831    0.118923
 H        -19.513207    4.519126    1.023536
 H        -19.505178    4.671750   -0.737444
 H        -20.303925    5.897828    0.251029
 C        -25.175744    4.271770   -0.010275
 C        -26.281159    3.452304    0.107491
 S        -25.683245    5.943485   -0.217602
 C        -27.517805    4.151268    0.037585
 H        -26.207427    2.379585    0.252265
 C        -27.358497    5.500106   -0.132379
 H        -28.486186    3.669583    0.115326
 H        -28.120509    6.263492   -0.213867
