       128
S0: Total Energy = -8687.89548827
 S        -20.821212   -2.385308   -0.105023
 C        -21.526899   -3.977280   -0.031280
 C        -20.572968   -4.961275    0.035940
 C        -19.239869   -4.457203    0.029910
 C        -19.222380   -3.068038   -0.043935
 H        -20.829181   -6.014669    0.087852
 S        -17.486496   -0.751691   -0.138088
 C        -15.769313   -1.162408   -0.090429
 C        -15.600731   -2.536595   -0.014438
 C        -16.809584   -3.271497    0.005609
 C        -17.919072   -2.431910   -0.056891
 H        -14.615518   -2.992380    0.022069
Si        -17.445121   -5.055069    0.089231
 C        -16.996550   -5.927920    1.700257
 H        -17.508450   -6.894696    1.775303
 H        -15.917773   -6.116775    1.754588
 H        -17.280082   -5.325502    2.569633
 C        -16.950196   -6.091183   -1.407372
 H        -15.870833   -6.284233   -1.409462
 H        -17.462252   -7.060706   -1.396060
 H        -17.206201   -5.583238   -2.343085
 H        -22.603608   -4.083586   -0.042555
 C        -14.765528   -0.129641   -0.127578
 C        -14.915695    1.231054   -0.263273
 S        -13.059279   -0.533449    0.020607
 C        -13.697182    1.967661   -0.245412
 H        -15.871803    1.725307   -0.374953
 C        -12.579710    1.149596   -0.104216
 C        -13.794444    3.438882   -0.372212
 C        -11.206476    1.522184   -0.086022
 N        -12.703259    4.317093   -0.200054
 O        -14.901972    3.928240   -0.584056
 C        -10.652592    2.797245   -0.166270
 S         -9.945969    0.306886    0.021580
 C        -11.307213    4.121499   -0.248812
 C        -13.093221    5.744326   -0.165627
 C         -9.228815    2.776632   -0.143991
 C         -8.674574    1.522153   -0.041675
 O        -10.589087    5.116232   -0.331450
 H        -14.083093    5.818379    0.275942
 H        -12.356403    6.286846    0.420798
 H        -13.120567    6.163020   -1.176257
 H         -8.651910    3.690487   -0.199617
 C         -7.287512    1.137008    0.015145
 S         -6.012334    2.356825   -0.036407
 C         -6.741938   -0.135202    0.112266
 C         -4.792130    1.124457    0.073104
 C         -5.329240   -0.160676    0.146152
 H         -7.363221   -1.024771    0.156819
 C         -3.350962    1.228548    0.099480
Si         -3.889518   -1.387315    0.261254
 S         -2.317987    2.624007    0.031215
 C         -2.637396    0.033705    0.195499
 C         -3.851631   -2.339270    1.887953
 C         -3.778774   -2.547522   -1.220466
 C         -0.883173    1.600561    0.134835
 C         -1.243014    0.262709    0.214321
 H         -4.690921   -3.042326    1.946909
 H         -2.924822   -2.917841    1.979416
 H         -3.915255   -1.661617    2.745683
 H         -2.849178   -3.128192   -1.191948
 H         -4.615010   -3.256659   -1.222884
 H         -3.802811   -1.990684   -2.162978
 C          0.434710    2.181688    0.129293
 H         -0.501875   -0.527606    0.287795
 C          0.803672    3.506448    0.093700
 S          1.866597    1.159806    0.172754
 C          2.209313    3.731924    0.110477
 H          0.100921    4.328794    0.063130
 C          2.939961    2.547341    0.151396
 C          2.667875    5.139050    0.097988
 C          4.352853    2.377859    0.147937
 N          4.016539    5.531403    0.227812
 O          1.817238    6.022269    0.011525
 C          5.342989    3.355356    0.093250
 S          5.067178    0.776007    0.174985
 C          5.231021    4.830951    0.070087
 C          4.190556    6.996293    0.349104
 C          6.654989    2.802946    0.065779
 C          6.699840    1.428715    0.107598
 O          6.264841    5.485679   -0.046385
 H          3.354201    7.395251    0.917000
 H          5.135864    7.188409    0.848744
 H          4.205970    7.467427   -0.638382
 H          7.531788    3.435559    0.019272
 C          7.842073    0.550956    0.102406
 S          9.480006    1.207025    0.042911
 C          7.872983   -0.835998    0.136733
 C         10.150926   -0.395486    0.064166
 C          9.173487   -1.389004    0.115749
 H          6.964693   -1.430110    0.175308
 C         11.526343   -0.838231    0.034916
Si         10.051678   -3.068597    0.130536
 S         13.003941    0.072977   -0.029048
 C         11.742794   -2.215795    0.060249
 C          9.774173   -4.040213    1.721902
 C          9.679584   -4.114527   -1.393053
 C         13.953563   -1.414853   -0.019603
 C         13.122042   -2.524268    0.028925
 H          8.735903   -4.385499    1.791425
 H         10.422445   -4.923727    1.756796
 H          9.988090   -3.426923    2.603439
 H         10.323345   -5.001437   -1.424121
 H          8.638452   -4.458349   -1.384605
 H          9.841611   -3.544844   -2.314033
 C         15.393556   -1.364881   -0.060276
 H         13.514931   -3.536567    0.044824
 C         16.227859   -0.271914   -0.051314
 S         16.342114   -2.844303   -0.132040
 C         17.616870   -0.587021   -0.090052
 H         15.883183    0.752994   -0.009739
 C         17.852889   -1.955654   -0.139772
 C         18.567137    0.549276   -0.061565
 C         19.105407   -2.637717   -0.223523
 N         19.963395    0.405041    0.065107
 O         18.103974    1.687062   -0.097893
 C         20.384834   -2.092371   -0.249745
 S         19.176301   -4.384492   -0.345780
 C         20.831159   -0.686577   -0.156938
 C         20.672228    1.688289    0.267127
 C         21.401080   -3.096844   -0.372761
 C         20.909319   -4.363595   -0.430626
 O         22.035649   -0.454659   -0.240877
 H         20.028390    2.348804    0.841469
 H         21.601948    1.486677    0.792197
 H         20.901026    2.160204   -0.693302
 H         22.452343   -2.845877   -0.409217
 H         21.453682   -5.294049   -0.517832
       128
T1: Total Energy = -8687.85331439
 S        -20.766966   -2.425321   -0.327107
 C        -21.468863   -4.019006   -0.259947
 C        -20.515779   -4.997716   -0.127315
 C        -19.186475   -4.488166   -0.075613
 C        -19.170315   -3.099392   -0.173221
 H        -20.770710   -6.051074   -0.069375
 S        -17.442197   -0.777856   -0.225559
 C        -15.726263   -1.180721   -0.087842
 C        -15.558243   -2.555878    0.021667
 C        -16.762599   -3.293093   -0.002381
 C        -17.872213   -2.458239   -0.133680
 H        -14.574489   -3.006372    0.115619
Si        -17.395208   -5.078235    0.083799
 C        -17.025773   -5.917973    1.731771
 H        -17.537948   -6.885158    1.799255
 H        -15.950661   -6.101405    1.844479
 H        -17.355040   -5.300216    2.573821
 C        -16.822593   -6.138541   -1.367141
 H        -15.743504   -6.325118   -1.312618
 H        -17.329751   -7.110669   -1.363040
 H        -17.034729   -5.649232   -2.323522
 H        -22.543232   -4.130732   -0.323166
 C        -14.726857   -0.150841   -0.099974
 C        -14.881552    1.215580   -0.216463
 S        -13.017691   -0.552190    0.050063
 C        -13.674642    1.958147   -0.181019
 H        -15.841073    1.704845   -0.322478
 C        -12.543728    1.140349   -0.045328
 C        -13.782639    3.428489   -0.277868
 C        -11.186277    1.513481   -0.017860
 N        -12.692459    4.312092   -0.108813
 O        -14.895083    3.918040   -0.465206
 C        -10.631870    2.803240   -0.104670
 S         -9.914610    0.300317    0.098341
 C        -11.298495    4.125200   -0.189176
 C        -13.089406    5.736659   -0.053151
 C         -9.225495    2.794902   -0.085866
 C         -8.645566    1.531954    0.024334
 O        -10.588143    5.123170   -0.291825
 H        -14.071564    5.800496    0.406764
 H        -12.345725    6.277510    0.526341
 H        -13.136909    6.166328   -1.058411
 H         -8.653671    3.711641   -0.147961
 C         -7.279248    1.184950    0.077157
 S         -6.008973    2.429046    0.007054
 C         -6.704254   -0.102783    0.184308
 C         -4.768826    1.198299    0.120861
 C         -5.319386   -0.119486    0.209921
 H         -7.324329   -0.992602    0.239024
 C         -3.372874    1.301305    0.136669
Si         -3.884139   -1.352302    0.326096
 S         -2.322276    2.700308    0.049428
 C         -2.638646    0.076006    0.239768
 C         -3.833662   -2.288118    1.960406
 C         -3.781016   -2.521490   -1.147533
 C         -0.885347    1.652086    0.149126
 C         -1.272955    0.290470    0.244748
 H         -4.671417   -2.991993    2.030612
 H         -2.905206   -2.864356    2.049834
 H         -3.892493   -1.603399    2.812729
 H         -2.851000   -3.101485   -1.118949
 H         -4.617015   -3.230867   -1.139741
 H         -3.810160   -1.971915   -2.094046
 C          0.412968    2.187103    0.127935
 H         -0.531596   -0.499731    0.315307
 C          0.808618    3.526350    0.038349
 S          1.847603    1.149441    0.223552
 C          2.192721    3.740003    0.054004
 H          0.108937    4.349246   -0.031850
 C          2.932440    2.539233    0.143743
 C          2.661080    5.146222   -0.003681
 C          4.323144    2.371364    0.137331
 N          4.008003    5.534639    0.136972
 O          1.817137    6.030680   -0.131408
 C          5.328704    3.352848    0.045415
 S          5.040715    0.762146    0.203969
 C          5.222268    4.824992   -0.007838
 C          4.187933    7.000510    0.230586
 C          6.627593    2.796895    0.018213
 C          6.675798    1.416744    0.098401
 O          6.255861    5.478667   -0.139004
 H          3.348620    7.414707    0.783224
 H          5.129167    7.198001    0.735876
 H          4.215264    7.453589   -0.765100
 H          7.506843    3.423979   -0.055620
 C          7.814750    0.551088    0.103875
 S          9.455212    1.207773    0.021008
 C          7.850266   -0.840707    0.166216
 C         10.127163   -0.394873    0.069859
 C          9.146998   -1.389786    0.147797
 H          6.942295   -1.433753    0.221631
 C         11.497495   -0.838128    0.040544
Si         10.024842   -3.069872    0.188530
 S         12.976426    0.070638   -0.049686
 C         11.714751   -2.217777    0.090827
 C          9.756900   -4.010788    1.799617
 C          9.641360   -4.142931   -1.312973
 C         13.924901   -1.418308   -0.017984
 C         13.091631   -2.526867    0.056644
 H          8.718286   -4.351990    1.882727
 H         10.403192   -4.895212    1.846085
 H          9.978564   -3.381868    2.668106
 H         10.284812   -5.030384   -1.332901
 H          8.600293   -4.486282   -1.290111
 H          9.796245   -3.589982   -2.245293
 C         15.363127   -1.371711   -0.067723
 H         13.484423   -3.538819    0.088843
 C         16.199432   -0.279393   -0.088201
 S         16.310105   -2.853828   -0.110116
 C         17.587152   -0.596955   -0.126490
 H         15.856082    0.746618   -0.068636
 C         17.821743   -1.967038   -0.146382
 C         18.539027    0.538564   -0.128202
 C         19.072826   -2.651780   -0.221637
 N         19.935390    0.395513   -0.002356
 O         18.077149    1.675778   -0.189346
 C         20.352958   -2.108570   -0.264850
 S         19.141327   -4.400971   -0.308002
 C         20.801327   -0.701860   -0.202865
 C         20.645887    1.682309    0.169020
 C         21.367391   -3.116644   -0.371303
 C         20.874013   -4.383793   -0.400675
 O         22.005927   -0.473379   -0.294742
 H         20.005601    2.354979    0.733210
 H         21.578473    1.491097    0.692833
 H         20.869272    2.134218   -0.802245
 H         22.418770   -2.867792   -0.417407
 H         21.416995   -5.316487   -0.470896
       128
S1: Total Energy = -8687.83682557
 S        -20.774669   -2.392551   -0.423146
 C        -21.481533   -3.984132   -0.373651
 C        -20.533312   -4.967697   -0.233861
 C        -19.204073   -4.463863   -0.162169
 C        -19.181835   -3.072878   -0.252049
 H        -20.793198   -6.020256   -0.185115
 S        -17.447774   -0.758234   -0.271151
 C        -15.734247   -1.168901   -0.115006
 C        -15.573300   -2.547812   -0.009433
 C        -16.778176   -3.278467   -0.051433
 C        -17.884978   -2.437299   -0.192690
 H        -14.592272   -3.002110    0.093739
Si        -17.417310   -5.062924    0.016623
 C        -17.072450   -5.912348    1.664468
 H        -17.589309   -6.877788    1.719806
 H        -15.999628   -6.100770    1.789822
 H        -17.410136   -5.297920    2.505581
 C        -16.830068   -6.114651   -1.434208
 H        -15.752058   -6.303577   -1.368107
 H        -17.339041   -7.085779   -1.442079
 H        -17.030077   -5.618887   -2.389855
 H        -22.555329   -4.092410   -0.451394
 C        -14.731875   -0.146410   -0.112993
 C        -14.880067    1.222711   -0.228729
 S        -13.025300   -0.554015    0.054020
 C        -13.672500    1.960105   -0.180502
 H        -15.836835    1.715481   -0.343651
 C        -12.544982    1.137498   -0.035594
 C        -13.774485    3.431064   -0.275621
 C        -11.187034    1.507021    0.001649
 N        -12.682646    4.309908   -0.095119
 O        -14.883665    3.925241   -0.471496
 C        -10.628321    2.793905   -0.080580
 S         -9.919713    0.291416    0.123480
 C        -11.288277    4.117712   -0.166432
 C        -13.075441    5.735480   -0.038830
 C         -9.219191    2.778568   -0.053801
 C         -8.648674    1.516821    0.058318
 O        -10.573473    5.113486   -0.262228
 H        -14.057737    5.801978    0.420642
 H        -12.330455    6.273695    0.541322
 H        -13.121611    6.165990   -1.043825
 H         -8.643827    3.693503   -0.111111
 C         -7.277171    1.157103    0.119207
 S         -6.003849    2.388501    0.045356
 C         -6.713768   -0.123976    0.235961
 C         -4.773811    1.159198    0.170621
 C         -5.318727   -0.143612    0.266245
 H         -7.334494   -1.012915    0.295479
 C         -3.359708    1.263601    0.188554
Si         -3.881001   -1.372868    0.394569
 S         -2.317941    2.659140    0.091642
 C         -2.634266    0.053601    0.300557
 C         -3.834655   -2.295237    2.036615
 C         -3.775111   -2.551439   -1.071368
 C         -0.880775    1.624162    0.199857
 C         -1.257008    0.272902    0.305296
 H         -4.672147   -2.998990    2.110382
 H         -2.906021   -2.869937    2.133312
 H         -3.896136   -1.603372    2.882965
 H         -2.844895   -3.130749   -1.037552
 H         -4.610871   -3.260988   -1.060571
 H         -3.802729   -2.007694   -2.021294
 C          0.423215    2.174902    0.173260
 H         -0.515569   -0.516374    0.382443
 C          0.808997    3.508167    0.071523
 S          1.857496    1.143469    0.278244
 C          2.196930    3.731488    0.084261
 H          0.106310    4.328113   -0.005580
 C          2.939870    2.534456    0.184010
 C          2.657539    5.135157    0.016728
 C          4.328582    2.367493    0.175820
 N          4.006766    5.529461    0.143503
 O          1.811288    6.019277   -0.108798
 C          5.333551    3.351946    0.060396
 S          5.050917    0.759356    0.263617
 C          5.220796    4.823443   -0.012816
 C          4.183161    6.995915    0.225693
 C          6.629348    2.802082    0.030451
 C          6.686204    1.417954    0.133224
 O          6.249965    5.479666   -0.167704
 H          3.346899    7.411349    0.781998
 H          5.127774    7.199724    0.722385
 H          4.201825    7.443337   -0.772861
 H          7.506150    3.430469   -0.060617
 C          7.823258    0.566140    0.143438
 S          9.463990    1.226747    0.021524
 C          7.866976   -0.831442    0.239356
 C         10.142206   -0.374916    0.100310
 C          9.157770   -1.373955    0.216627
 H          6.960760   -1.423887    0.321946
 C         11.501196   -0.815154    0.063818
Si         10.036073   -3.053563    0.288043
 S         12.982234    0.090135   -0.071904
 C         11.722469   -2.201016    0.147069
 C          9.788324   -3.953494    1.925258
 C          9.634443   -4.162825   -1.181729
 C         13.930301   -1.401711   -0.018390
 C         13.091747   -2.510201    0.099332
 H          8.750630   -4.291651    2.029783
 H         10.434706   -4.837020    1.985309
 H         10.021277   -3.303387    2.774938
 H         10.277763   -5.050612   -1.187330
 H          8.593767   -4.505243   -1.137409
 H          9.777831   -3.633160   -2.129239
 C         15.359990   -1.364061   -0.093904
 H         13.485381   -3.521175    0.147845
 C         16.199947   -0.275223   -0.214327
 S         16.308924   -2.847657   -0.032549
 C         17.582657   -0.595245   -0.250016
 H         15.855809    0.749017   -0.274139
 C         17.819986   -1.965922   -0.167355
 C         18.535048    0.535220   -0.360829
 C         19.067475   -2.651538   -0.214828
 N         19.931053    0.403433   -0.224576
 O         18.073066    1.662777   -0.521421
 C         20.349385   -2.112448   -0.307755
 S         19.136156   -4.404518   -0.188658
 C         20.798336   -0.706764   -0.339228
 C         20.640019    1.700480   -0.156444
 C         21.361388   -3.126496   -0.359705
 C         20.868530   -4.393107   -0.301671
 O         22.003785   -0.483925   -0.441241
 H         20.000821    2.414472    0.356063
 H         21.574706    1.551837    0.377195
 H         20.859120    2.076263   -1.160622
 H         22.412272   -2.881964   -0.433007
 H         21.411458   -5.328335   -0.317904
