       137
S0: Total Energy = -8499.26114104
 C        -10.276990   -2.761927    0.008121
 C        -11.702435   -2.788271    0.008856
 C        -12.545660   -3.895202    0.011004
 C         -9.395419   -3.836270    0.074623
 C        -12.233364   -5.342373   -0.027598
 C         -9.658537   -5.292617    0.122336
 N        -10.927272   -5.868330   -0.097151
 O         -8.703363   -6.044348    0.301156
 O        -13.173552   -6.133747   -0.022476
 C        -13.922351   -3.529227    0.031966
 C         -8.033074   -3.421082    0.097937
 H        -14.704693   -4.276710    0.034171
 H         -7.225445   -4.139269    0.152572
 C         -7.849928   -2.060722    0.038397
 C        -14.153450   -2.175000    0.041249
 S        -12.629019   -1.301423    0.033446
 S         -9.403886   -1.243496   -0.036953
 C        -10.896325   -7.342529   -0.227191
 H        -11.726235   -7.648617   -0.858762
 H         -9.942356   -7.628002   -0.661328
 H        -11.001150   -7.819044    0.752208
 C        -15.415026   -1.471712    0.055983
 C        -15.633609   -0.118941    0.045282
 S        -16.934615   -2.393655    0.089907
 C        -17.019197    0.241478    0.062542
 H        -14.837301    0.616314    0.011485
 C        -17.866400   -0.903868    0.071744
 C        -17.592200    1.526251    0.059310
 C        -19.253707   -0.810399    0.070303
 C        -18.981508    1.619977    0.056924
 O        -16.806426    2.654175    0.018723
 C        -19.828281    0.473945    0.067618
 O        -20.030921   -1.944989    0.112711
 S        -19.922319    3.106061    0.039125
 C        -16.402163    3.147710    1.307199
 C        -21.221467    0.838856    0.083095
 C        -20.489787   -2.403093   -1.170211
 C        -21.413867    2.182855    0.070164
 H        -17.273088    3.414537    1.916621
 H        -15.798758    2.404392    1.841199
 H        -15.802019    4.039052    1.115603
 H        -22.027717    0.115613    0.113778
 H        -21.118831   -1.648484   -1.656355
 H        -19.645154   -2.648153   -1.824380
 H        -21.077555   -3.302594   -0.978384
 H        -22.357447    2.713038    0.078033
 C         -6.614125   -1.313798    0.028986
 S         -5.065180   -2.177641    0.139245
 C         -6.441667    0.043799   -0.058818
 C         -4.184865   -0.660431    0.045118
 C         -5.070979    0.452365   -0.043360
 H         -7.262250    0.746953   -0.147972
 C         -2.802031   -0.518916    0.055856
 C         -4.542683    1.756225   -0.114151
 C         -2.273701    0.784970   -0.015262
 O         -1.982010   -1.615323    0.175446
 C         -3.159845    1.897745   -0.103360
 O         -5.362462    2.852893   -0.233252
 C         -0.903098    1.193756    0.002009
 C         -1.511769   -2.151989   -1.073705
 S         -2.279772    3.415065   -0.197337
 C         -5.833814    3.388150    1.016118
 C         -0.731003    2.551503   -0.084403
 H         -0.082520    0.491034    0.094854
 H         -2.349527   -2.476356   -1.701213
 H         -0.913447   -1.412777   -1.618596
 H         -0.890361   -3.011969   -0.818223
 H         -6.432457    2.648291    1.559741
 H         -4.996583    3.711982    1.644608
 H         -6.455167    4.248290    0.761036
 C          0.504489    3.298895   -0.089862
 C          0.686650    4.660609   -0.106090
 S          2.059168    2.480460   -0.076017
 C          2.049087    5.075894   -0.097698
 H         -0.121659    5.379947   -0.115030
 C          2.931517    3.999905   -0.079393
 C          2.308746    6.533950   -0.084106
 C          4.356962    4.025179   -0.084106
 N          3.594979    7.107753   -0.030398
 O          1.340120    7.290192   -0.096993
 C          5.198589    5.129369   -0.175291
 S          5.284700    2.540604   -0.015018
 C          4.882452    6.574326   -0.248081
 C          3.573578    8.584155    0.074719
 C          6.574815    4.763382   -0.199084
 C          6.807412    3.411674   -0.115879
 O          5.808536    7.356619   -0.446580
 H          2.736163    8.870979    0.705429
 H          4.518630    8.910928    0.499166
 H          3.447396    9.039950   -0.911969
 H          7.355856    5.508757   -0.272504
 C          8.069540    2.710299   -0.101647
 S          9.586021    3.628774   -0.221151
 C          8.291120    1.360623   -0.003042
 C         10.520600    2.145094   -0.116880
 C          9.675666    1.001723   -0.017478
 H          7.496599    0.628969    0.092186
 C         11.907653    2.053872   -0.129334
 C         10.251187   -0.281446    0.063309
 C         12.483123    0.770844   -0.048215
 O         12.686135    3.179067   -0.259762
 C         11.638330   -0.372618    0.051422
 O          9.471462   -1.405811    0.192964
 C         13.867896    0.411916   -0.064524
 C         13.146410    3.737660    0.983479
 S         12.573816   -1.855791    0.158162
 C          9.024230   -1.972368   -1.051479
 C         14.089650   -0.937331    0.034598
 H         14.662224    1.142804   -0.166611
 H         12.302293    4.035402    1.615704
 H         13.774186    3.022551    1.527351
 H         13.735465    4.617649    0.719615
 H          8.401796   -1.260679   -1.605969
 H          9.874756   -2.273714   -1.673278
 H          8.432872   -2.850985   -0.788200
 C         15.352931   -1.638305    0.046168
 C         15.587720   -2.990948    0.065701
 S         16.874803   -0.760154    0.038804
 C         16.967295   -3.351783    0.065052
 H         14.808376   -3.741599    0.071314
 C         17.805271   -2.243321    0.047030
 C         17.285761   -4.798661    0.053139
 C         19.234814   -2.211512    0.051322
 N         18.594034   -5.320444    0.043709
 O         16.347642   -5.592700    0.036779
 C         20.116486   -3.279474    0.170913
 S         20.108418   -0.697173   -0.055369
 C         19.854202   -4.730580    0.285497
 C         18.633713   -6.797609   -0.038441
 C         21.485533   -2.854837    0.186165
 C         21.636664   -1.507695    0.068155
 O         20.801419   -5.471850    0.535518
 H         17.835776   -7.126186   -0.699446
 H         19.607993   -7.093299   -0.416944
 H         18.482318   -7.244048    0.949037
 H         22.302966   -3.556952    0.277649
 H         22.552469   -0.932963    0.040981
       137
T1: Total Energy = -8499.21100155
 C        -10.291301   -2.760790    0.011957
 C        -11.714968   -2.779714    0.003295
 C        -12.564913   -3.882935    0.001419
 C         -9.415056   -3.841257    0.088645
 C        -12.260432   -5.331727   -0.034895
 C         -9.687192   -5.296579    0.137094
 N        -10.956584   -5.865105   -0.094062
 O         -8.737879   -6.052999    0.326281
 O        -13.204799   -6.118033   -0.037371
 C        -13.938787   -3.509622    0.013610
 C         -8.053075   -3.435167    0.122075
 H        -14.725210   -4.252823    0.011876
 H         -7.250169   -4.157972    0.185491
 C         -7.859652   -2.073590    0.059557
 C        -14.163218   -2.153625    0.020252
 S        -12.634342   -1.287613    0.020543
 S         -9.409296   -1.246835   -0.031354
 C        -10.932718   -7.339520   -0.223677
 H        -11.758755   -7.640979   -0.862511
 H         -9.976641   -7.630365   -0.649560
 H        -11.048744   -7.815355    0.754765
 C        -15.421142   -1.444959    0.027068
 C        -15.633373   -0.090809    0.018458
 S        -16.945437   -2.359722    0.046695
 C        -17.017061    0.275983    0.026065
 H        -14.833381    0.640783   -0.006884
 C        -17.869811   -0.865400    0.025615
 C        -17.583854    1.563652    0.022021
 C        -19.256526   -0.765243    0.013783
 C        -18.972589    1.664023    0.009215
 O        -16.792202    2.687619   -0.009399
 C        -19.824866    0.521950    0.010291
 O        -20.039406   -1.896158    0.047128
 S        -19.906189    3.154594   -0.011614
 C        -16.396510    3.176603    1.283539
 C        -21.216296    0.893424    0.016224
 C        -20.491659   -2.348000   -1.240403
 C        -21.402188    2.238411    0.005529
 H        -17.271289    3.446298    1.886112
 H        -15.801156    2.429296    1.820993
 H        -15.790579    4.065467    1.098834
 H        -22.026214    0.174000    0.038809
 H        -21.113714   -1.588848   -1.728441
 H        -19.643710   -2.595065   -1.889500
 H        -21.085037   -3.245243   -1.055442
 H        -22.343300    2.773019    0.007702
 C         -6.622180   -1.339191    0.057743
 S         -5.079395   -2.207819    0.188576
 C         -6.439496    0.023009   -0.037826
 C         -4.192023   -0.694492    0.092844
 C         -5.074504    0.422278   -0.011718
 H         -7.256553    0.728312   -0.140683
 C         -2.812021   -0.559848    0.110930
 C         -4.536571    1.729564   -0.091864
 C         -2.272987    0.748004    0.032893
 O         -1.999659   -1.657009    0.244431
 C         -3.159713    1.866604   -0.074611
 O         -5.355064    2.824179   -0.227334
 C         -0.914428    1.141476    0.060997
 C         -1.479366   -2.179657   -0.992319
 S         -2.274691    3.384037   -0.175613
 C         -5.841867    3.367825    1.013114
 C         -0.722321    2.518567   -0.039321
 H         -0.096172    0.438724    0.167727
 H         -2.292821   -2.502733   -1.651389
 H         -0.865975   -1.432387   -1.507877
 H         -0.863070   -3.037996   -0.720423
 H         -6.443728    2.630300    1.556210
 H         -5.012036    3.699475    1.647097
 H         -6.463264    4.223522    0.744028
 C          0.501580    3.223254   -0.042180
 C          0.707268    4.605850   -0.138185
 S          2.057934    2.384079    0.092137
 C          2.036560    5.018523   -0.101885
 H         -0.102962    5.318995   -0.224432
 C          2.948717    3.917312    0.006533
 C          2.297718    6.473759   -0.145958
 C          4.326148    3.944866    0.000644
 N          3.576350    7.051048    0.010320
 O          1.338277    7.232592   -0.273877
 C          5.192817    5.080433   -0.120271
 S          5.277463    2.448483    0.082566
 C          4.874043    6.523428   -0.168551
 C          3.548647    8.525469    0.125188
 C          6.537793    4.719359   -0.168399
 C          6.797696    3.347483   -0.068176
 O          5.799968    7.319048   -0.318177
 H          2.652919    8.809937    0.671117
 H          4.445573    8.845257    0.649059
 H          3.527074    8.995470   -0.862827
 H          7.318859    5.463039   -0.265200
 C          8.049547    2.689933   -0.070164
 S          9.564604    3.614650   -0.231604
 C          8.296032    1.324420    0.044213
 C         10.510036    2.135102   -0.121119
 C          9.670232    0.983902    0.008549
 H          7.507223    0.591451    0.167823
 C         11.891718    2.052856   -0.150427
 C         10.261358   -0.299518    0.098961
 C         12.481555    0.770069   -0.058709
 O         12.664014    3.177996   -0.307436
 C         11.646047   -0.379207    0.069809
 O          9.495170   -1.426750    0.255274
 C         13.862471    0.424638   -0.091560
 C         13.139151    3.756670    0.921594
 S         12.594614   -1.854145    0.179274
 C          8.985525   -1.987183   -0.969174
 C         14.099672   -0.926135    0.022755
 H         14.649772    1.160449   -0.210817
 H         12.302149    4.063275    1.558800
 H         13.774488    3.050823    1.468684
 H         13.723673    4.632860    0.636266
 H          8.336952   -1.272935   -1.488539
 H          9.805353   -2.285378   -1.632096
 H          8.407780   -2.866455   -0.679993
 C         15.367661   -1.610585    0.026415
 C         15.619301   -2.958679    0.125997
 S         16.878882   -0.721976   -0.105449
 C         16.999931   -3.306334    0.093679
 H         14.849384   -3.713630    0.216935
 C         17.825153   -2.193656   -0.030897
 C         17.333589   -4.748499    0.167877
 C         19.252568   -2.150093   -0.081204
 N         18.644816   -5.260299    0.128788
 O         16.404220   -5.548385    0.251670
 C         20.149928   -3.202551    0.064106
 S         20.105781   -0.636438   -0.304445
 C         19.909275   -4.647215    0.270350
 C         18.694303   -6.739604    0.138764
 C         21.513586   -2.765891    0.002479
 C         21.645780   -1.426043   -0.195747
 O         20.876083   -5.365131    0.513461
 H         17.873105   -7.114844   -0.466708
 H         19.654925   -7.052389   -0.260033
 H         18.586725   -7.122980    1.157946
 H         22.341507   -3.454604    0.101262
 H         22.553855   -0.846086   -0.289564
       137
S1: Total Energy = -8499.19332975
 C        -10.263344   -2.749972    0.049041
 C        -11.673117   -2.777595    0.025712
 C        -12.524770   -3.891717    0.057346
 C         -9.372773   -3.833450    0.128667
 C        -12.214087   -5.337053    0.069877
 C         -9.636219   -5.291599    0.157529
 N        -10.908598   -5.865765   -0.034245
 O         -8.677615   -6.046504    0.305067
 O        -13.151509   -6.130080    0.134891
 C        -13.893135   -3.525006    0.058951
 C         -8.024149   -3.423650    0.172784
 H        -14.676465   -4.271369    0.084117
 H         -7.217707   -4.142693    0.237006
 C         -7.828912   -2.051674    0.117047
 C        -14.129960   -2.166207    0.019788
 S        -12.605269   -1.287014   -0.012665
 S         -9.385669   -1.226703    0.020606
 C        -10.877808   -7.340553   -0.154205
 H        -11.749799   -7.656290   -0.720340
 H         -9.956717   -7.624762   -0.655899
 H        -10.904946   -7.810670    0.833554
 C        -15.388756   -1.474705    0.004434
 C        -15.612771   -0.117479   -0.030365
 S        -16.908921   -2.397704    0.031778
 C        -16.994739    0.238123   -0.036785
 H        -14.816737    0.617907   -0.063950
 C        -17.842129   -0.909127   -0.021494
 C        -17.570488    1.524360   -0.066877
 C        -19.227723   -0.817265   -0.044260
 C        -18.958794    1.615363   -0.090886
 O        -16.786271    2.651431   -0.112349
 C        -19.804418    0.467969   -0.074651
 O        -20.004782   -1.950778    0.005360
 S        -19.901336    3.099846   -0.142213
 C        -16.389383    3.159193    1.173770
 C        -21.196275    0.830471   -0.082193
 C        -20.453157   -2.426110   -1.275449
 C        -21.390348    2.175222   -0.117144
 H        -17.264401    3.433540    1.773735
 H        -15.790295    2.421239    1.719609
 H        -15.787277    4.047553    0.975335
 H        -22.002438    0.107216   -0.051076
 H        -21.077852   -1.678074   -1.776952
 H        -19.602886   -2.680062   -1.918702
 H        -21.042668   -3.322714   -1.076045
 H        -22.335081    2.703268   -0.129187
 C         -6.602593   -1.328457    0.122660
 S         -5.052317   -2.187228    0.235897
 C         -6.421011    0.047951    0.041948
 C         -4.173934   -0.665510    0.150468
 C         -5.069216    0.449265    0.065910
 H         -7.243879    0.747660   -0.051040
 C         -2.800137   -0.523644    0.151306
 C         -4.535187    1.766216   -0.006950
 C         -2.265491    0.793528    0.078651
 O         -1.979683   -1.615406    0.264025
 C         -3.162104    1.908723   -0.007490
 O         -5.359519    2.855310   -0.121049
 C         -0.914495    1.193357    0.097128
 C         -1.445352   -2.106489   -0.980570
 S         -2.283397    3.430381   -0.101461
 C         -5.868488    3.364951    1.126418
 C         -0.730716    2.572125    0.007945
 H         -0.090660    0.495012    0.189381
 H         -2.251842   -2.429292   -1.648086
 H         -0.841434   -1.340716   -1.479469
 H         -0.817434   -2.960128   -0.721294
 H         -6.464654    2.607243    1.646884
 H         -5.049156    3.694820    1.774474
 H         -6.499288    4.216628    0.867611
 C          0.493179    3.289561   -0.005289
 C          0.693036    4.663055   -0.085785
 S          2.051846    2.458380    0.085954
 C          2.037193    5.073404   -0.069881
 H         -0.114255    5.381619   -0.149142
 C          2.934863    3.983869    0.011629
 C          2.300406    6.527609   -0.114820
 C          4.333588    4.008156   -0.002108
 N          3.583109    7.101287    0.014071
 O          1.339547    7.288533   -0.223362
 C          5.191836    5.125399   -0.108243
 S          5.269600    2.513744    0.060801
 C          4.880577    6.567954   -0.158437
 C          3.559913    8.576605    0.116680
 C          6.550789    4.757072   -0.150731
 C          6.795386    3.394728   -0.065651
 O          5.810405    7.360122   -0.307498
 H          2.674864    8.867851    0.676306
 H          4.467884    8.899478    0.618760
 H          3.519419    9.036505   -0.875617
 H          7.333110    5.500591   -0.234981
 C          8.047279    2.713935   -0.067768
 S          9.565768    3.628811   -0.220456
 C          8.280266    1.352041    0.037990
 C         10.501872    2.143791   -0.118681
 C          9.652741    0.998953    0.002420
 H          7.485877    0.623968    0.156022
 C         11.883254    2.051806   -0.146076
 C         10.234752   -0.289855    0.085858
 C         12.463821    0.763869   -0.061608
 O         12.663917    3.171841   -0.294342
 C         11.617501   -0.380099    0.058456
 O          9.460029   -1.412877    0.234064
 C         13.839746    0.408422   -0.095650
 C         13.142514    3.739137    0.938775
 S         12.554828   -1.863888    0.159102
 C          8.940280   -1.955568   -0.993892
 C         14.068055   -0.946988    0.009883
 H         14.633131    1.138607   -0.209379
 H         12.307205    4.048935    1.576616
 H         13.771117    3.024606    1.482263
 H         13.734691    4.612028    0.659247
 H          8.296401   -1.230114   -1.503481
 H          9.754729   -2.254439   -1.663187
 H          8.355448   -2.832506   -0.711730
 C         15.328912   -1.637479    0.009233
 C         15.572914   -2.989471    0.105045
 S         16.847243   -0.758938   -0.124954
 C         16.948759   -3.346226    0.067772
 H         14.797863   -3.739050    0.196732
 C         17.783543   -2.238289   -0.055571
 C         17.272596   -4.791077    0.138247
 C         19.209107   -2.205436   -0.105722
 N         18.578257   -5.313470    0.070279
 O         16.338559   -5.583684    0.238730
 C         20.100353   -3.267456    0.020008
 S         20.073634   -0.693436   -0.303653
 C         19.851018   -4.713380    0.198813
 C         18.614325   -6.793127    0.062617
 C         21.466408   -2.838665   -0.036652
 C         21.608142   -1.496399   -0.211526
 O         20.815375   -5.444952    0.410876
 H         17.778549   -7.154172   -0.531521
 H         19.564407   -7.109883   -0.357643
 H         18.522209   -7.187460    1.079153
 H         22.289746   -3.534697    0.048101
 H         22.520385   -0.921623   -0.296372
