       198
S0: Total Energy = -6640.18555482
 C         15.516623   -3.729241   -0.301608
 C         14.674641   -4.795225   -0.129977
 C         13.310930   -4.402908   -0.069273
 C         13.106336   -3.039976   -0.193517
 S         14.657730   -2.225667   -0.364193
 H         15.009616   -5.823092   -0.040366
 H         12.502173   -5.108855    0.081974
 C         11.805721   -2.366943   -0.233574
 C         11.629208   -0.956885   -0.036809
 N         12.724170   -0.176911    0.123866
 C         12.598073    1.123846    0.319904
 C         11.282614    1.702128    0.446107
 N         10.206857    0.964775    0.230079
 C         10.327310   -0.357438   -0.047048
 C          9.154646   -1.154676   -0.298150
 C          9.374224   -2.514998   -0.518620
 C         10.647227   -3.098100   -0.485173
 H         16.597235   -3.734680   -0.365254
 H         10.720577   -4.159271   -0.696625
 H          8.535774   -3.164482   -0.751467
 C         13.861581    1.912319    0.358899
 C         14.965091    1.399920    1.045757
 C         13.985557    3.128581   -0.337357
 C         16.182793    2.093327    1.060240
 H         14.892924    0.456257    1.574905
 C         15.201045    3.803680   -0.331379
 H         13.142752    3.530821   -0.888673
 C         16.304978    3.303645    0.367078
 H         15.300752    4.736801   -0.879146
 H         17.238217    3.854656    0.361126
 C         11.039036    3.110800    0.871263
 C         11.702683    3.658656    1.983607
 C         10.088732    3.878315    0.194523
 C         11.403771    4.953151    2.394453
 H         12.433867    3.069588    2.526735
 C          9.802774    5.187710    0.603916
 H          9.563458    3.474141   -0.664194
 C         10.462398    5.731239    1.712713
 H         11.907389    5.372268    3.261249
 H         10.254089    6.739837    2.050118
 O         17.185186    1.505531    1.777141
 O          8.868448    5.846530   -0.143321
 C          8.535615    7.180560    0.220582
 H          9.408761    7.842829    0.164075
 H          7.786641    7.509007   -0.501902
 H          8.110814    7.227766    1.231315
 C         18.448529    2.156549    1.826069
 H         18.372056    3.149561    2.287099
 H         19.087846    1.521411    2.441355
 H         18.889409    2.255078    0.825968
 C          7.799231   -0.606052   -0.316455
 C          7.355338    0.687163   -0.523799
 S          6.424228   -1.685969   -0.105949
 C          5.949566    0.808871   -0.515872
 H          8.026657    1.517539   -0.683978
 C          5.268775   -0.378102   -0.293633
 H          5.448238    1.753492   -0.693713
 C          3.819071   -0.533096   -0.193493
 C          3.149661   -1.802758   -0.228541
 C          2.997428    0.583915   -0.048476
 N          3.894772   -2.929452   -0.276833
 C          1.721091   -1.900921   -0.176102
 C          1.602919    0.493022    0.028287
 H          3.442206    1.569245    0.036640
 C          3.319822   -4.118856   -0.325880
 N          1.139636   -3.120134   -0.299991
 C          0.910622   -0.718082   -0.042542
 H          1.052929    1.418620    0.168452
 C          1.883124   -4.208402   -0.408091
 C          4.239416   -5.288523   -0.251824
 C          1.149951   -5.480458   -0.669037
 C          5.468088   -5.219563   -0.914387
 C          3.943261   -6.418440    0.532526
 C          1.541342   -6.341991   -1.709199
 C          0.019712   -5.790958    0.089926
 C          6.399780   -6.258809   -0.806612
 H          5.718474   -4.351120   -1.512587
 C          4.874209   -7.446414    0.636415
 H          3.003327   -6.481432    1.069186
 C          0.798499   -7.488611   -1.968791
 H          2.409767   -6.105711   -2.314867
 C         -0.716169   -6.955874   -0.166672
 H         -0.300158   -5.138719    0.895614
 C          6.102939   -7.384764   -0.029611
 O          7.568496   -6.072148   -1.491620
 H          4.649957   -8.314008    1.250926
 C         -0.327054   -7.811930   -1.203912
 H          1.092973   -8.148410   -2.780318
 O         -1.791413   -7.163474    0.649121
 H          6.808560   -8.201462    0.068971
 C          8.547328   -7.103319   -1.442633
 H         -0.883442   -8.715689   -1.423416
 C         -2.576210   -8.331616    0.442996
 H          8.159501   -8.044630   -1.852029
 H          9.377325   -6.756723   -2.060585
 H          8.901673   -7.273611   -0.418037
 H         -1.982501   -9.244293    0.579746
 H         -3.364791   -8.298149    1.196523
 H         -3.028879   -8.340964   -0.556631
 C         -0.549943   -0.744467    0.004331
 C         -1.423126   -1.772550    0.312061
 S         -1.453689    0.732082   -0.321325
 C         -2.779732   -1.385731    0.289619
 H         -1.089152   -2.771475    0.549583
 C         -2.996105   -0.057632   -0.044214
 H         -3.582250   -2.071404    0.536839
 C         -4.296414    0.594858   -0.183800
 C         -4.467544    2.017702   -0.273579
 C         -5.464316   -0.164175   -0.245120
 N         -3.369749    2.805373   -0.313520
 C         -5.767581    2.613317   -0.360954
 C         -6.735451    0.410587   -0.362745
 H         -5.401240   -1.246640   -0.232187
 C         -3.483984    4.121027   -0.373272
 N         -5.876695    3.965185   -0.338996
 C         -6.946650    1.789672   -0.416194
 H         -7.582468   -0.265111   -0.434029
 C         -4.793221    4.722697   -0.306107
 C         -2.212835    4.877023   -0.550694
 C         -5.019967    6.186754   -0.138027
 C         -1.067215    4.433032    0.115211
 C         -2.115812    5.967619   -1.434390
 C         -4.304882    6.925563    0.821654
 C         -6.004342    6.822197   -0.897611
 C          0.167804    5.060424   -0.086832
 H         -1.120883    3.586406    0.789735
 C         -0.885370    6.585124   -1.631682
 H         -2.989872    6.314622   -1.974026
 C         -4.587837    8.275185    1.001607
 H         -3.547122    6.441681    1.428595
 C         -6.274646    8.186088   -0.722389
 H         -6.570301    6.269971   -1.640014
 C          0.263250    6.147847   -0.963267
 O          1.216123    4.529892    0.612462
 H         -0.808247    7.420235   -2.322541
 C         -5.563774    8.920105    0.234748
 H         -4.044634    8.843503    1.751676
 O         -7.245959    8.701115   -1.531901
 H          1.208685    6.648730   -1.136339
 C          2.495537    5.134543    0.466604
 H         -5.759185    9.974566    0.391055
 C         -7.573374   10.078807   -1.397528
 H          2.482089    6.183744    0.787791
 H          3.168732    4.568533    1.112529
 H          2.851634    5.078101   -0.569861
 H         -6.710661   10.720487   -1.617196
 H         -8.361119   10.270797   -2.127780
 H         -7.947366   10.306756   -0.391435
 C         -8.300347    2.334362   -0.507275
 C         -8.747693    3.554515   -0.978990
 S         -9.668044    1.340948   -0.017471
 C        -10.152919    3.689349   -0.948186
 H         -8.080999    4.322437   -1.342410
 C        -10.825780    2.587997   -0.445790
 H        -10.659055    4.576964   -1.310789
 C        -12.274142    2.469695   -0.255844
 C        -12.932964    1.215017   -0.012039
 C        -13.084369    3.603545   -0.306188
 N        -12.202207    0.088878    0.146751
 C        -14.353686    1.152486    0.114115
 C        -14.485683    3.538446   -0.160371
 H        -12.628720    4.577793   -0.445300
 C        -12.802064   -1.069788    0.364463
 N        -14.975665   -0.047567    0.266111
 C        -15.126683    2.335093    0.043421
 H        -15.059379    4.459575   -0.208873
 C        -14.247651   -1.148094    0.349522
 C        -11.895511   -2.213350    0.665325
 C        -15.009263   -2.429392    0.374077
 C        -10.686311   -2.311209   -0.028619
 C        -12.177751   -3.136426    1.689040
 C        -14.622624   -3.527687   -0.415325
 C        -16.175682   -2.511307    1.138179
 C         -9.760609   -3.314449    0.281670
 H        -10.445338   -1.599280   -0.809557
 C        -11.252965   -4.129724    1.993045
 H        -13.101430   -3.064096    2.252236
 C        -15.402104   -4.679295   -0.419945
 H        -13.730096   -3.472315   -1.028938
 C        -16.948190   -3.680201    1.141326
 H        -16.499523   -1.666518    1.736107
 C        -10.044058   -4.235778    1.296832
 O         -8.611569   -3.301250   -0.459185
 H        -11.466094   -4.835749    2.791017
 C        -16.561261   -4.773819    0.357154
 H        -15.110445   -5.523694   -1.038517
 O        -18.056166   -3.650352    1.938643
 H         -9.342541   -5.020527    1.555134
 C         -7.634016   -4.301713   -0.199939
 H        -17.145575   -5.686417    0.340620
 C        -18.889376   -4.802324    1.976439
 H         -8.034332   -5.308582   -0.373662
 H         -6.819439   -4.112065   -0.900906
 H         -7.253726   -4.235960    0.827370
 H        -18.347074   -5.679044    2.352887
 H        -19.702956   -4.559618    2.661908
 H        -19.304516   -5.031124    0.986720
 H        -16.204040    2.260823    0.149940
       198
T1: Total Energy = -6640.14208781
 C         15.411834   -3.841741   -0.294040
 C         14.585081   -4.864534    0.089956
 C         13.235010   -4.448748    0.217148
 C         13.021894   -3.108703   -0.068454
 S         14.556065   -2.347642   -0.485661
 H         14.923512   -5.876796    0.283480
 H         12.442927   -5.119005    0.530262
 C         11.730970   -2.426848   -0.067567
 C         11.578736   -1.000002   -0.123420
 N         12.685056   -0.233722   -0.259081
 C         12.590157    1.084916   -0.316190
 C         11.305360    1.711592   -0.156031
 N         10.209997    0.970968   -0.075814
 C         10.286980   -0.379284   -0.080826
 C          9.084227   -1.180934   -0.012364
 C          9.283993   -2.571527    0.001885
 C         10.544418   -3.165030   -0.023331
 H         16.481963   -3.873130   -0.454477
 H         10.588130   -4.248368   -0.028681
 H          8.427964   -3.238444    0.024565
 C         13.853190    1.826105   -0.591097
 C         15.025993    1.443388    0.064391
 C         13.900812    2.858019   -1.546116
 C         16.240065    2.088082   -0.208558
 H         15.011617    0.639835    0.792284
 C         15.111616    3.483013   -1.823093
 H         13.001654    3.154774   -2.074955
 C         16.286481    3.114916   -1.159173
 H         15.151444    4.271645   -2.569532
 H         17.215047    3.624184   -1.389324
 C         11.107382    3.183099   -0.024752
 C         11.915006    3.955509    0.829290
 C         10.055590    3.794827   -0.711760
 C         11.656868    5.313885    0.977739
 H         12.725655    3.491595    1.380595
 C          9.809781    5.167159   -0.568846
 H          9.419240    3.215521   -1.372354
 C         10.614063    5.934626    0.282233
 H         12.272944    5.908454    1.646752
 H         10.440474    6.996597    0.410919
 O         17.315672    1.641314    0.503902
 O          8.765746    5.656759   -1.300237
 C          8.470092    7.044773   -1.204837
 H          9.315595    7.659874   -1.537827
 H          7.618354    7.214456   -1.865513
 H          8.197690    7.328727   -0.180364
 C         18.578855    2.250888    0.268720
 H         18.559268    3.322151    0.506270
 H         19.281824    1.746648    0.933751
 H         18.902888    2.116810   -0.771117
 C          7.745695   -0.633275    0.036772
 C          7.303321    0.694984    0.027332
 S          6.353236   -1.723849    0.136947
 C          5.918428    0.828909    0.080630
 H          7.988833    1.527652   -0.013320
 C          5.205392   -0.384803    0.138214
 H          5.432138    1.796629    0.071764
 C          3.786881   -0.531258    0.178286
 C          3.114423   -1.812488    0.219946
 C          2.941610    0.614807    0.192028
 N          3.859707   -2.928277    0.297582
 C          1.684659   -1.912168    0.217053
 C          1.572548    0.529723    0.218052
 H          3.386018    1.603050    0.187897
 C          3.283340   -4.132332    0.335728
 N          1.115922   -3.130568    0.188079
 C          0.859602   -0.710005    0.214093
 H          1.015737    1.460912    0.238322
 C          1.868645   -4.234378    0.209137
 C          4.201991   -5.282223    0.564076
 C          1.130863   -5.518815    0.048857
 C          5.446349   -5.294860   -0.071619
 C          3.882383   -6.313790    1.466380
 C          1.570963   -6.506889   -0.850615
 C         -0.056913   -5.720046    0.757203
 C          6.368723   -6.318498    0.177158
 H          5.716682   -4.503870   -0.761470
 C          4.802769   -7.327580    1.708692
 H          2.929814   -6.309747    1.984445
 C          0.823875   -7.667431   -1.019395
 H          2.481845   -6.357013   -1.420088
 C         -0.798340   -6.897886    0.592816
 H         -0.416560   -4.968471    1.451980
 C          6.047367   -7.347553    1.069704
 O          7.555421   -6.214981   -0.495848
 H          4.558385   -8.118069    2.413113
 C         -0.358096   -7.880496   -0.302005
 H          1.158433   -8.425046   -1.722890
 O         -1.932067   -6.989524    1.349555
 H          6.745936   -8.149385    1.278656
 C          8.520860   -7.243606   -0.314845
 H         -0.917638   -8.796964   -0.448804
 C         -2.719585   -8.168468    1.239955
 H          8.128946   -8.220931   -0.623665
 H          9.365160   -6.976447   -0.952667
 H          8.856261   -7.302552    0.728505
 H         -2.150541   -9.060820    1.530102
 H         -3.555676   -8.034216    1.928291
 H         -3.105599   -8.301766    0.221265
 C         -0.558529   -0.717373    0.196846
 C         -1.474269   -1.797792    0.175905
 S         -1.463320    0.818414    0.183828
 C         -2.799738   -1.409580    0.166615
 H         -1.139631   -2.823773    0.162892
 C         -3.018927   -0.010108    0.175711
 H         -3.610929   -2.127423    0.158249
 C         -4.287664    0.641570    0.184570
 C         -4.449020    2.079493    0.213877
 C         -5.488580   -0.108041    0.149707
 N         -3.350434    2.852951    0.155516
 C         -5.745771    2.688411    0.260840
 C         -6.738565    0.480942    0.161439
 H         -5.443443   -1.189712    0.105325
 C         -3.449240    4.180760    0.178803
 N         -5.831001    4.033189    0.363771
 C         -6.943963    1.878125    0.228912
 H         -7.596743   -0.182420    0.120766
 C         -4.734211    4.783620    0.362270
 C         -2.184391    4.932326   -0.048594
 C         -4.947200    6.238480    0.607682
 C         -0.999871    4.460603    0.523726
 C         -2.137864    6.056507   -0.894266
 C         -4.158581    6.945531    1.533065
 C         -5.994975    6.895543   -0.042361
 C          0.222385    5.093574    0.266949
 H         -1.012204    3.590181    1.169303
 C         -0.920666    6.680117   -1.145095
 H         -3.043207    6.424413   -1.363993
 C         -4.430186    8.285667    1.786454
 H         -3.352321    6.443815    2.057221
 C         -6.255051    8.249919    0.207300
 H         -6.618434    6.365448   -0.754485
 C          0.266662    6.215083   -0.569382
 O          1.312090    4.533532    0.874721
 H         -0.884731    7.541612   -1.806371
 C         -5.469102    8.952561    1.128665
 H         -3.828758    8.828873    2.510307
 O         -7.293756    8.788393   -0.496744
 H          1.201329    6.720269   -0.783159
 C          2.580669    5.144634    0.673750
 H         -5.654676    9.999009    1.340923
 C         -7.610117   10.159029   -0.286682
 H          2.589606    6.180065    1.037104
 H          3.291855    4.553635    1.253307
 H          2.871628    5.130354   -0.384323
 H         -6.769818   10.811581   -0.555717
 H         -8.457084   10.373304   -0.940466
 H         -7.897836   10.350418    0.754889
 C         -8.284421    2.419435    0.262616
 C         -8.734329    3.733358    0.378622
 S         -9.674299    1.329080    0.152590
 C        -10.132698    3.853904    0.368852
 H         -8.057333    4.568639    0.471432
 C        -10.823610    2.652652    0.248819
 H        -10.624960    4.816520    0.443360
 C        -12.274510    2.489612    0.195846
 C        -12.918353    1.212496    0.026180
 C        -13.113988    3.600968    0.314657
 N        -12.179522    0.081461   -0.013196
 C        -14.341741    1.121602   -0.052417
 C        -14.517324    3.499480    0.264074
 H        -12.682172    4.585151    0.455537
 C        -12.767029   -1.093969   -0.174398
 N        -14.940016   -0.075243   -0.295118
 C        -15.138942    2.281937    0.079156
 H        -15.110450    4.403711    0.366354
 C        -14.194752   -1.162233   -0.400162
 C        -11.879879   -2.283803   -0.044444
 C        -14.913187   -2.404099   -0.805222
 C        -10.591844   -2.231693   -0.584000
 C        -12.274517   -3.420172    0.685676
 C        -14.387931   -3.271289   -1.780429
 C        -16.172336   -2.667478   -0.260635
 C         -9.697941   -3.295145   -0.408204
 H        -10.264860   -1.359698   -1.138547
 C        -11.381197   -4.471961    0.857592
 H        -13.263230   -3.469978    1.128033
 C        -15.124929   -4.379397   -2.183796
 H        -13.420478   -3.069616   -2.227020
 C        -16.902949   -3.794345   -0.659791
 H        -16.601234   -1.997097    0.476057
 C        -10.093164   -4.427685    0.313537
 O         -8.464947   -3.124328   -0.973200
 H        -11.682821   -5.344771    1.430199
 C        -16.378075   -4.658434   -1.628591
 H        -14.724894   -5.043038   -2.945529
 O        -18.112109   -3.958344   -0.047107
 H         -9.418298   -5.262483    0.462610
 C         -7.519244   -4.180347   -0.854449
 H        -16.927192   -5.533632   -1.955781
 C        -18.908979   -5.076136   -0.418850
 H         -7.887616   -5.103299   -1.319874
 H         -6.626346   -3.842027   -1.382788
 H         -7.268135   -4.379942    0.195078
 H        -18.400050   -6.023645   -0.200519
 H        -19.817373   -5.007816    0.181855
 H        -19.174393   -5.044796   -1.483185
 H        -16.217812    2.182443    0.020098
       198
S1: Total Energy = -6640.12407641
 C         15.413106   -3.824769   -0.271485
 C         14.579337   -4.865790    0.046258
 C         13.226916   -4.458904    0.158571
 C         13.016140   -3.105753   -0.072374
 S         14.559418   -2.325146   -0.420914
 H         14.915678   -5.885321    0.201515
 H         12.430160   -5.144953    0.420963
 C         11.728013   -2.425186   -0.064475
 C         11.576532   -0.998953   -0.106425
 N         12.683773   -0.230672   -0.228209
 C         12.587810    1.089498   -0.271237
 C         11.303582    1.714111   -0.112126
 N         10.205936    0.970981   -0.046281
 C         10.283967   -0.377657   -0.063796
 C          9.080759   -1.181768   -0.008633
 C          9.280737   -2.575121   -0.005315
 C         10.538631   -3.166382   -0.029136
 H         16.486664   -3.848823   -0.409025
 H         10.582821   -4.249500   -0.040874
 H          8.424187   -3.241663    0.008178
 C         13.852132    1.833571   -0.532597
 C         15.020533    1.450196    0.130300
 C         13.905530    2.869743   -1.482740
 C         16.235535    2.098284   -0.130288
 H         15.001962    0.643564    0.854699
 C         15.117269    3.498181   -1.747518
 H         13.009797    3.167060   -2.017101
 C         16.287635    3.129298   -1.076060
 H         15.161497    4.290150   -2.490188
 H         17.217100    3.641078   -1.296819
 C         11.103057    3.183038    0.032897
 C         11.914101    3.952007    0.887479
 C         10.043977    3.797813   -0.641029
 C         11.652736    5.308198    1.048711
 H         12.729616    3.486490    1.430033
 C          9.794714    5.167888   -0.485065
 H          9.405089    3.222100   -1.302249
 C         10.602738    5.931365    0.366161
 H         12.271709    5.899180    1.718258
 H         10.426542    6.991632    0.504956
 O         17.306433    1.650361    0.588712
 O          8.743474    5.660039   -1.204716
 C          8.444738    7.046396   -1.096402
 H          9.286085    7.666472   -1.430706
 H          7.587767    7.218886   -1.749570
 H          8.178994    7.321726   -0.067815
 C         18.570021    2.263962    0.366691
 H         18.545865    3.334142    0.608693
 H         19.268708    1.758537    1.035340
 H         18.903038    2.135235   -0.670989
 C          7.744102   -0.635822    0.039260
 C          7.302337    0.692711    0.041889
 S          6.350894   -1.724713    0.118463
 C          5.915540    0.824834    0.087960
 H          7.988377    1.525385    0.015248
 C          5.206519   -0.387030    0.127824
 H          5.428623    1.792398    0.086856
 C          3.778891   -0.536293    0.158904
 C          3.111714   -1.813791    0.182991
 C          2.939140    0.602132    0.178871
 N          3.860847   -2.933000    0.247704
 C          1.681742   -1.914804    0.178716
 C          1.562411    0.513773    0.200388
 H          3.379502    1.592171    0.183046
 C          3.285121   -4.134118    0.270966
 N          1.111559   -3.137219    0.135142
 C          0.859846   -0.718951    0.186220
 H          1.006663    1.445539    0.226076
 C          1.865418   -4.236612    0.144082
 C          4.202373   -5.287726    0.484952
 C          1.132636   -5.521792   -0.030034
 C          5.446715   -5.293327   -0.151169
 C          3.883040   -6.329090    1.376131
 C          1.577485   -6.500014   -0.938193
 C         -0.056790   -5.733043    0.672965
 C          6.369498   -6.319103    0.086774
 H          5.716300   -4.495372   -0.833273
 C          4.803907   -7.344972    1.607633
 H          2.930619   -6.331019    1.894412
 C          0.833118   -7.660112   -1.121141
 H          2.489394   -6.342597   -1.503902
 C         -0.795072   -6.910715    0.494612
 H         -0.419560   -4.989663    1.374878
 C          6.048471   -7.357689    0.968420
 O          7.556232   -6.207832   -0.584785
 H          4.559834   -8.143005    2.303584
 C         -0.350349   -7.883083   -0.409234
 H          1.171148   -8.409661   -1.831570
 O         -1.930375   -7.012859    1.247561
 H          6.747267   -8.161518    1.168719
 C          8.521916   -7.238264   -0.415445
 H         -0.907521   -8.799168   -0.566985
 C         -2.714753   -8.192561    1.123861
 H          8.130308   -8.212054   -0.735575
 H          9.366199   -6.963399   -1.050003
 H          8.857150   -7.309132    0.627212
 H         -2.144073   -9.086454    1.405884
 H         -3.552639   -8.067600    1.811757
 H         -3.098245   -8.316060    0.103005
 C         -0.572748   -0.731772    0.169295
 C         -1.478348   -1.807466    0.149241
 S         -1.473208    0.798311    0.156188
 C         -2.812033   -1.418213    0.138645
 H         -1.144431   -2.833662    0.137008
 C         -3.026047   -0.026314    0.145067
 H         -3.622519   -2.136766    0.131086
 C         -4.298957    0.635611    0.147129
 C         -4.450886    2.070972    0.174396
 C         -5.497648   -0.110321    0.105695
 N         -3.345657    2.838718    0.128339
 C         -5.745700    2.686710    0.207317
 C         -6.746779    0.482703    0.106745
 H         -5.455221   -1.192326    0.063322
 C         -3.439967    4.168064    0.148580
 N         -5.826265    4.033826    0.306426
 C         -6.944652    1.881612    0.168108
 H         -7.606837   -0.177695    0.060777
 C         -4.724385    4.777530    0.314071
 C         -2.169178    4.913077   -0.061170
 C         -4.932641    6.234427    0.551650
 C         -0.993329    4.431020    0.521567
 C         -2.104886    6.041777   -0.900306
 C         -4.155952    6.940092    1.488272
 C         -5.965731    6.895840   -0.117385
 C          0.235601    5.057346    0.282218
 H         -1.018848    3.558295    1.163538
 C         -0.881014    6.658763   -1.133814
 H         -3.002023    6.417797   -1.379101
 C         -4.424201    8.282424    1.733435
 H         -3.361558    6.435271    2.027377
 C         -6.222460    8.252292    0.124185
 H         -6.579994    6.367341   -0.838659
 C          0.296974    6.183159   -0.547307
 O          1.315022    4.486773    0.899407
 H         -0.832122    7.523395   -1.790177
 C         -5.448240    8.953356    1.056593
 H         -3.831972    8.824275    2.465879
 O         -7.246375    8.794509   -0.598740
 H          1.237224    6.683420   -0.747890
 C          2.587900    5.096614    0.723781
 H         -5.631602   10.001379    1.262943
 C         -7.559022   10.167190   -0.397206
 H          2.592675    6.129461    1.094433
 H          3.288350    4.500351    1.311018
 H          2.896553    5.089252   -0.329367
 H         -6.710871   10.814798   -0.653295
 H         -8.393613   10.384437   -1.065786
 H         -7.863419   10.362595    0.638878
 C         -8.281570    2.427647    0.190624
 C         -8.727068    3.747841    0.275783
 S         -9.676936    1.339882    0.109389
 C        -10.122091    3.873542    0.263507
 H         -8.045368    4.581274    0.348885
 C        -10.820161    2.670029    0.172249
 H        -10.611239    4.839120    0.315474
 C        -12.267351    2.512563    0.123016
 C        -12.916103    1.231362   -0.003983
 C        -13.104417    3.632794    0.203905
 N        -12.181787    0.098644   -0.005694
 C        -14.340864    1.143798   -0.080187
 C        -14.505639    3.533583    0.156889
 H        -12.668766    4.619568    0.310566
 C        -12.774210   -1.081669   -0.126863
 N        -14.943155   -0.058723   -0.284225
 C        -15.132162    2.310610    0.012739
 H        -15.096836    4.442081    0.228288
 C        -14.200529   -1.151435   -0.351803
 C        -11.890786   -2.267898    0.045435
 C        -14.923126   -2.403023   -0.718014
 C        -10.596988   -2.231980   -0.482302
 C        -12.292253   -3.383616    0.803825
 C        -14.401118   -3.301013   -1.666833
 C        -16.182602   -2.646426   -0.164930
 C         -9.704825   -3.289100   -0.266687
 H        -10.264715   -1.376757   -1.059133
 C        -11.400839   -4.429901    1.014394
 H        -13.284856   -3.420833    1.238522
 C        -15.141250   -4.418954   -2.035779
 H        -13.433501   -3.115321   -2.120007
 C        -16.916504   -3.782952   -0.529196
 H        -16.609273   -1.952840    0.551322
 C        -10.107006   -4.400948    0.482877
 O         -8.465696   -3.133408   -0.823503
 H        -11.708336   -5.285984    1.608762
 C        -16.394782   -4.677626   -1.471551
 H        -14.743589   -5.106523   -2.777298
 O        -18.125742   -3.924965    0.089047
 H         -9.433466   -5.230674    0.663141
 C         -7.520447   -4.184118   -0.662515
 H        -16.946557   -5.560816   -1.771698
 C        -18.925770   -5.051394   -0.247942
 H         -7.882416   -5.120906   -1.104774
 H         -6.621685   -3.860449   -1.190183
 H         -7.281426   -4.352258    0.395295
 H        -18.418866   -5.993206   -0.001931
 H        -19.833226   -4.962880    0.351564
 H        -19.192565   -5.051349   -1.312410
 H        -16.211503    2.214088   -0.043497
