       127
S0: Total Energy = -6409.09897051
 C        -18.246087    5.416773    0.251111
 C        -18.861895    4.246788    0.602750
 C        -17.969266    3.144021    0.609685
 C        -16.663999    3.464185    0.263159
 S        -16.561810    5.197266   -0.078207
 H        -19.914674    4.164252    0.850065
 H        -18.284393    2.143919    0.863482
 C        -15.518473    2.555996    0.175285
 C        -14.189808    2.973242   -0.187437
 N        -13.990395    4.291527   -0.460944
 C        -12.798206    4.707556   -0.793102
 C        -11.705440    3.792340   -0.871230
 N        -11.853127    2.516719   -0.615584
 C        -13.089166    2.062557   -0.267578
 C        -13.252951    0.662054    0.006791
 C        -14.547294    0.300025    0.364796
 C        -15.625337    1.195141    0.440208
 H        -12.649488    5.762438   -1.010993
 F        -14.849979   -0.971912    0.682124
 F        -16.794387    0.632867    0.806561
 O        -10.522278    4.312086   -1.226841
 H        -18.684232    6.403222    0.166321
 C        -12.175316   -0.325982   -0.068494
 C        -12.313138   -1.700792   -0.184033
 S        -10.476571    0.095465    0.087175
 C        -11.092146   -2.400257   -0.166958
 H        -13.266213   -2.198897   -0.287231
 C         -9.975903   -1.589199   -0.012369
 H        -11.040257   -3.474653   -0.258258
 C         -8.576200   -2.014468   -0.001282
 C         -7.483529   -1.176941    0.417194
 C         -8.190012   -3.288194   -0.405459
 N         -7.769032    0.094345    0.812956
 C         -6.127362   -1.633419    0.430839
 C         -6.861161   -3.736713   -0.394727
 F         -9.084041   -4.184686   -0.866036
 C         -6.798906    0.877626    1.202120
 N         -5.131488   -0.799540    0.840841
 C         -5.779694   -2.966358    0.021905
 F         -6.686459   -4.991611   -0.847016
 C         -5.448970    0.413882    1.216474
 H         -7.034660    1.889931    1.521911
 O         -4.527205    1.289204    1.641633
 C         -9.406961    3.410785   -1.325861
 H         -9.193378    2.953768   -0.356386
 H         -9.612354    2.621376   -2.053546
 H         -8.569736    4.027498   -1.653043
 C         -3.161554    0.842542    1.686523
 H         -2.598626    1.685428    2.087714
 H         -3.062926   -0.031280    2.335844
 H         -2.807170    0.583788    0.685629
 C         -4.416813   -3.499751    0.020781
 C         -4.045898   -4.835769   -0.001477
 S         -2.988423   -2.479492   -0.063128
 C         -2.655349   -5.041022   -0.066053
 H         -4.752161   -5.652439    0.035505
 C         -1.911202   -3.870122   -0.121892
 H         -2.216570   -6.027252   -0.080172
 C         -0.453014   -3.757266   -0.153643
 C          0.253959   -2.546023   -0.475379
 C          0.375459   -4.837437    0.132065
 N         -0.479841   -1.432069   -0.749510
 C          1.682810   -2.478821   -0.516673
 C          1.776031   -4.772589    0.095503
 F         -0.124622   -6.035073    0.493283
 C          0.133539   -0.318777   -1.050351
 N          2.301322   -1.307546   -0.834186
 C          2.496935   -3.628334   -0.232379
 F          2.401903   -5.915843    0.428478
 C          1.559094   -0.261042   -1.095319
 H         -0.458524    0.565850   -1.272852
 O          2.092937    0.923209   -1.425683
 C          3.526172    1.004764   -1.502080
 H          3.914059    0.292756   -2.235296
 H          3.737667    2.028525   -1.811070
 H          3.976979    0.794681   -0.529047
 C          3.960130   -3.631685   -0.265619
 C          4.787493   -4.739610   -0.369850
 S          4.926937   -2.178268   -0.063258
 C          6.159832   -4.434886   -0.307885
 H          4.421892   -5.748368   -0.496097
 C          6.433629   -3.085638   -0.127805
 H          6.924454   -5.193012   -0.385302
 C          7.753868   -2.458301   -0.066464
 C          7.984861   -1.110220    0.379989
 C          8.908782   -3.134223   -0.445329
 N          6.905641   -0.366952    0.750340
 C          9.294297   -0.536714    0.446005
 C         10.192743   -2.572800   -0.384021
 F          8.865535   -4.391276   -0.927698
 C          7.083155    0.859770    1.162220
 N          9.455848    0.744352    0.879632
 C         10.461551   -1.282856    0.063630
 F         11.179409   -3.377644   -0.818266
 C          8.392561    1.424299    1.228153
 H          6.217442    1.446306    1.460761
 O          8.470303    2.686535    1.671857
 C          9.777948    3.276194    1.767339
 H         10.247976    3.334382    0.782452
 H          9.611890    4.274071    2.173484
 H         10.417008    2.690357    2.433147
 C         11.828485   -0.761442    0.118893
 C         13.003191   -1.498102    0.098563
 S         12.199845    0.956083    0.113015
 C         14.170838   -0.711298    0.099913
 H         13.031218   -2.577842    0.091386
 C         13.932016    0.654716    0.095014
 H         15.160253   -1.143813    0.096703
 C         14.933567    1.725112    0.147809
 C         14.646252    3.099123   -0.181428
 C         16.247925    1.469189    0.529776
 N         13.379098    3.438643   -0.550449
 C         15.658002    4.107808   -0.129992
 C         17.238921    2.469235    0.576538
 F         16.655102    0.238334    0.895527
 C         13.124293    4.685470   -0.849228
 N         15.378777    5.408721   -0.446024
 C         16.974967    3.774255    0.255217
 F         18.468552    2.092100    0.961366
 C         14.147935    5.684705   -0.794945
 H         12.114515    4.958180   -1.147187
 O         13.771024    6.929889   -1.124363
 C         14.779432    7.952488   -1.083126
 H         15.186321    8.052730   -0.073150
 H         15.592970    7.720183   -1.775781
 H         14.270992    8.868637   -1.383529
 H         17.747347    4.532757    0.297090
       127
T1: Total Energy = -6409.04809071
 C        -18.400996    5.248764    0.367083
 C        -18.995413    4.058124    0.686264
 C        -18.082861    2.972813    0.665033
 C        -16.782682    3.326395    0.328253
 S        -16.713372    5.069733    0.031216
 H        -20.046778    3.949537    0.929418
 H        -18.379462    1.960446    0.890859
 C        -15.620923    2.444269    0.221651
 C        -14.304379    2.891938   -0.150435
 N        -14.136216    4.216172   -0.414127
 C        -12.957157    4.660802   -0.757163
 C        -11.847290    3.770060   -0.857589
 N        -11.965057    2.489053   -0.608945
 C        -13.185500    2.005878   -0.249542
 C        -13.316200    0.597033    0.012974
 C        -14.603460    0.206594    0.381255
 C        -15.696305    1.077751    0.476839
 H        -12.833732    5.720507   -0.967107
 F        -14.877575   -1.073248    0.693487
 F        -16.849364    0.490335    0.854349
 O        -10.680511    4.316546   -1.226172
 H        -18.857904    6.228513    0.307336
 C        -12.223868   -0.363708   -0.081376
 C        -12.338670   -1.749187   -0.173178
 S        -10.524707    0.093650   -0.011208
 C        -11.114256   -2.424465   -0.192084
 H        -13.284995   -2.265645   -0.236547
 C         -9.994193   -1.590974   -0.094238
 H        -11.050377   -3.498514   -0.266953
 C         -8.605675   -1.992906   -0.100463
 C         -7.500808   -1.091244    0.134753
 C         -8.206658   -3.321000   -0.335860
 N         -7.790194    0.214710    0.362851
 C         -6.137069   -1.523565    0.142498
 C         -6.888289   -3.747434   -0.332507
 F         -9.112076   -4.281709   -0.610760
 C         -6.816783    1.061479    0.596731
 N         -5.145771   -0.631656    0.384971
 C         -5.773952   -2.909243   -0.090434
 F         -6.720052   -5.055267   -0.611316
 C         -5.467259    0.624302    0.611201
 H         -7.060115    2.104319    0.784170
 O         -4.539749    1.557263    0.870895
 C         -9.549500    3.438533   -1.350747
 H         -9.320164    2.968795   -0.391145
 H         -9.746695    2.657733   -2.089818
 H         -8.726979    4.076364   -1.674692
 C         -3.167886    1.134843    0.913423
 H         -2.598569    2.036666    1.140358
 H         -3.018897    0.380607    1.690171
 H         -2.865252    0.717029   -0.049745
 C         -4.432132   -3.405432   -0.084584
 C         -4.031952   -4.763335   -0.155538
 S         -2.988841   -2.370303   -0.021090
 C         -2.669266   -4.962253   -0.159329
 H         -4.731790   -5.582887   -0.190464
 C         -1.895352   -3.771594   -0.105527
 H         -2.231081   -5.946032   -0.207072
 C         -0.477428   -3.675599   -0.099999
 C          0.253950   -2.418018   -0.117393
 C          0.369178   -4.819366   -0.080329
 N         -0.462917   -1.272879   -0.132493
 C          1.683591   -2.358522   -0.129713
 C          1.743515   -4.761996   -0.090937
 F         -0.150296   -6.062872   -0.024410
 C          0.165277   -0.114369   -0.163585
 N          2.310276   -1.158468   -0.157829
 C          2.500585   -3.558325   -0.125412
 F          2.363367   -5.959215   -0.039638
 C          1.576457   -0.062076   -0.177773
 H         -0.420525    0.800252   -0.184052
 O          2.134555    1.158400   -0.216414
 C          3.567554    1.233297   -0.251468
 H          3.960987    0.731682   -1.139259
 H          3.797350    2.298909   -0.280735
 H          3.999267    0.768971    0.638543
 C          3.931107   -3.560359   -0.154142
 C          4.776322   -4.682473   -0.285553
 S          4.924756   -2.100875    0.020546
 C          6.131575   -4.386756   -0.264662
 H          4.409643   -5.689058   -0.405634
 C          6.428565   -3.024039   -0.098998
 H          6.887687   -5.150667   -0.356623
 C          7.746352   -2.428834   -0.060527
 C          8.006559   -1.054840    0.302343
 C          8.902653   -3.153174   -0.379509
 N          6.944853   -0.266747    0.613888
 C          9.329247   -0.510016    0.351926
 C         10.190893   -2.619083   -0.336153
 F          8.839469   -4.436329   -0.785635
 C          7.148092    0.979849    0.958342
 N          9.516786    0.788806    0.710703
 C         10.487419   -1.303943    0.034018
 F         11.165474   -3.470531   -0.707005
 C          8.466293    1.515162    1.007466
 H          6.294132    1.602495    1.212536
 O          8.572681    2.798829    1.378245
 C          9.893677    3.359897    1.457016
 H         10.379537    3.342856    0.478370
 H          9.748190    4.385602    1.796306
 H         10.507481    2.802050    2.168996
 C         11.858796   -0.811432    0.078634
 C         13.023428   -1.571538    0.054138
 S         12.268420    0.900794    0.078172
 C         14.204278   -0.810023    0.058086
 H         13.031546   -2.650921    0.044753
 C         13.993454    0.562097    0.059967
 H         15.184785   -1.262544    0.051270
 C         15.018038    1.608358    0.116265
 C         14.768093    2.986670   -0.226840
 C         16.321609    1.322750    0.516089
 N         13.514714    3.354612   -0.615030
 C         15.804678    3.969728   -0.171603
 C         17.336263    2.297943    0.567147
 F         16.692481    0.085192    0.897065
 C         13.296186    4.604933   -0.928703
 N         15.562873    5.274389   -0.502363
 C         17.108215    3.606553    0.232311
 F         18.551547    1.894050    0.970057
 C         14.344059    5.578265   -0.869979
 H         12.297989    4.900816   -1.243085
 O         14.003521    6.829461   -1.215675
 C         15.037481    7.826129   -1.171059
 H         15.432868    7.926788   -0.156569
 H         15.854172    7.565360   -1.849717
 H         14.557142    8.751773   -1.488115
 H         17.898604    4.346108    0.277252
       127
S1: Total Energy = -6409.03214190
 C        -18.403850    5.245380    0.285466
 C        -19.019754    4.041852    0.504268
 C        -18.110843    2.955435    0.483720
 C        -16.789461    3.319663    0.247234
 S        -16.699319    5.076796    0.045326
 H        -20.084577    3.926661    0.674900
 H        -18.422550    1.934122    0.637002
 C        -15.626959    2.441506    0.169747
 C        -14.290566    2.900258   -0.105557
 N        -14.107461    4.233779   -0.300580
 C        -12.909868    4.690610   -0.554976
 C        -11.797315    3.803237   -0.629623
 N        -11.930370    2.511223   -0.444344
 C        -13.167918    2.015932   -0.178481
 C        -13.313082    0.593882    0.013379
 C        -14.625654    0.193735    0.290382
 C        -15.717475    1.062355    0.361925
 H        -12.774745    5.758166   -0.710599
 F        -14.921092   -1.096928    0.531794
 F        -16.891727    0.466018    0.649059
 O        -10.610878    4.361616   -0.904585
 H        -18.855322    6.228777    0.248106
 C        -12.221717   -0.359808   -0.062708
 C        -12.331914   -1.751612   -0.147597
 S        -10.520341    0.099394    0.003816
 C        -11.110462   -2.423105   -0.164096
 H        -13.275828   -2.271088   -0.209698
 C         -9.988604   -1.586549   -0.073359
 H        -11.045695   -3.497494   -0.231576
 C         -8.602768   -1.989361   -0.075742
 C         -7.497583   -1.087758    0.149645
 C         -8.206907   -3.321636   -0.298930
 N         -7.783206    0.221825    0.364512
 C         -6.134028   -1.524973    0.161144
 C         -6.888964   -3.750312   -0.290565
 F         -9.113347   -4.282908   -0.566843
 C         -6.804856    1.067260    0.587316
 N         -5.138395   -0.633311    0.391014
 C         -5.777320   -2.911766   -0.055266
 F         -6.721388   -5.060428   -0.557420
 C         -5.456888    0.626149    0.602688
 H         -7.042900    2.112815    0.765197
 O         -4.525974    1.559707    0.848097
 C         -9.473943    3.488010   -0.998813
 H         -9.308275    2.971322   -0.050411
 H         -9.622234    2.745136   -1.786729
 H         -8.632381    4.138724   -1.236883
 C         -3.154803    1.134945    0.888305
 H         -2.582241    2.038013    1.101662
 H         -3.003304    0.389375    1.672985
 H         -2.858286    0.705261   -0.071541
 C         -4.431473   -3.415274   -0.040494
 C         -4.038111   -4.768351   -0.069418
 S         -2.991642   -2.384346   -0.025311
 C         -2.667368   -4.967789   -0.076057
 H         -4.737970   -5.588779   -0.072114
 C         -1.903237   -3.782931   -0.068207
 H         -2.229880   -5.953061   -0.095043
 C         -0.471391   -3.682610   -0.070935
 C          0.253364   -2.433159   -0.169728
 C          0.366825   -4.815931    0.020030
 N         -0.467329   -1.288609   -0.251318
 C          1.684308   -2.372724   -0.192730
 C          1.748375   -4.759222   -0.000600
 F         -0.148213   -6.054133    0.161474
 C          0.160011   -0.136998   -0.356787
 N          2.310431   -1.173618   -0.299373
 C          2.498215   -3.566032   -0.117391
 F          2.365571   -5.950880    0.128923
 C          1.574500   -0.084626   -0.383121
 H         -0.425129    0.775591   -0.429673
 O          2.126979    1.132868   -0.502235
 C          3.559670    1.208773   -0.554808
 H          3.946016    0.653654   -1.413500
 H          3.786281    2.270931   -0.652102
 H          4.000363    0.800886    0.358044
 C          3.935402   -3.570467   -0.154664
 C          4.774307   -4.695175   -0.260975
 S          4.927700   -2.109746   -0.020191
 C          6.131552   -4.402069   -0.246508
 H          4.404720   -5.703378   -0.360168
 C          6.431128   -3.036240   -0.110513
 H          6.886073   -5.169026   -0.322451
 C          7.745600   -2.441036   -0.077064
 C          7.999013   -1.050177    0.226033
 C          8.910951   -3.179888   -0.339950
 N          6.932436   -0.251076    0.480546
 C          9.321630   -0.502040    0.273908
 C         10.194293   -2.645160   -0.297864
 F          8.853001   -4.481838   -0.684720
 C          7.128493    1.013182    0.771006
 N          9.500777    0.812029    0.575435
 C         10.486664   -1.308774    0.015589
 F         11.176294   -3.512964   -0.610274
 C          8.442963    1.550365    0.819604
 H          6.269191    1.644936    0.980260
 O          8.543963    2.850673    1.133013
 C          9.863440    3.413783    1.211833
 H         10.372773    3.340997    0.247877
 H          9.712586    4.457079    1.489985
 H         10.459360    2.896338    1.968215
 C         11.851629   -0.814912    0.064274
 C         13.022625   -1.573301    0.045564
 S         12.261145    0.900734    0.078618
 C         14.199018   -0.812195    0.064747
 H         13.033995   -2.652135    0.030730
 C         13.988416    0.563185    0.075631
 H         15.179341   -1.264559    0.060812
 C         15.011861    1.605242    0.141233
 C         14.757565    2.993613   -0.162958
 C         16.324863    1.311166    0.511670
 N         13.499602    3.372050   -0.521307
 C         15.796552    3.974739   -0.101515
 C         17.338941    2.284254    0.569968
 F         16.703218    0.064904    0.856338
 C         13.277074    4.630331   -0.802737
 N         15.550631    5.287045   -0.397288
 C         17.106076    3.601745    0.271261
 F         18.561336    1.871667    0.942555
 C         14.326223    5.600433   -0.738341
 H         12.274292    4.934114   -1.093808
 O         13.982443    6.860166   -1.049558
 C         15.018920    7.853679   -0.998777
 H         15.430593    7.930827    0.011290
 H         15.824409    7.607108   -1.695915
 H         14.535615    8.787154   -1.287209
 H         17.897750    4.339569    0.321015
