       186
S0: Total Energy = -9942.40188759
 C         16.637684   -7.028573    0.844099
 C         16.867942   -5.736146    0.501615
 C         15.661461   -4.952584    0.403356
 C         14.503596   -5.728517    0.701452
 S         14.943550   -7.395023    1.076276
 H         17.858720   -5.334093    0.331331
 C         15.533071   -3.572653    0.111069
 C         13.206349   -5.198728    0.736647
 C         14.238792   -3.043352    0.147202
 C         13.079156   -3.818862    0.444704
 C         11.878158   -3.041726    0.341973
 C         12.084437   -1.732002   -0.000923
 S         13.807105   -1.374455   -0.218332
 H         10.890115   -3.458095    0.495802
 C         16.690012   -2.721276   -0.216589
 C         17.071627   -1.544881    0.377885
 C         18.216398   -0.978678   -0.246655
 C         18.730592   -1.671354   -1.305583
 S         17.759164   -3.100445   -1.563402
 H         16.579217   -1.103582    1.236071
 C         12.049604   -6.048871    1.063459
 C         11.680424   -7.236404    0.482684
 C         10.530964   -7.798268    1.101654
 C         10.000896   -7.092034    2.143876
 S         10.962124   -5.654750    2.391707
 H         12.184495   -7.688127   -0.363134
 C         11.106645   -0.684357   -0.187458
 C         11.293651    0.586238   -0.696834
 C         10.115066    1.360701   -0.745906
 C          8.985298    0.705654   -0.279210
 S          9.427690   -0.930346    0.231540
 H         12.255343    0.952934   -1.039900
 H         10.079847    2.376141   -1.108328
 C         19.919935   -1.323336   -2.145644
 H         19.649925   -1.184743   -3.199085
 H         20.355151   -0.388406   -1.781620
 H         20.693298   -2.099028   -2.099885
 C          8.802139   -7.431935    2.973730
 H          9.058497   -7.550513    4.032995
 H          8.376873   -8.375422    2.620217
 H          8.025717   -6.661196    2.903625
 H         17.370045   -7.813693    0.980895
 F         18.761219    0.174270    0.197146
 F          9.996648   -8.960086    0.668705
 C          7.612625    1.196082   -0.170357
 C          7.236207    2.590400   -0.287243
 C          6.539964    0.345304    0.046070
 C          5.872696    3.021474   -0.167157
 N          8.194723    3.507103   -0.540112
 C          5.204141    0.764819    0.144379
 C          4.788611    2.084092    0.049558
 N          5.594210    4.341035   -0.232819
 C          7.900311    4.792414   -0.650504
 C          3.383822    2.467814    0.174801
 C          6.550290    5.233452   -0.434074
 C          9.026805    5.685264   -1.042050
 S          2.085061    1.264984    0.126254
 C          2.831632    3.730114    0.335688
 C          6.128896    6.661164   -0.374101
 C          8.873661    6.661453   -2.043066
 C         10.279478    5.496229   -0.452193
 C          0.848021    2.488584    0.296403
 C          1.422766    3.740513    0.406182
 H          3.441229    4.618267    0.390881
 C          4.936651    7.043761   -0.994560
 C          6.866036    7.612331    0.354060
 C          9.969656    7.424964   -2.430333
 H          7.911813    6.807265   -2.522206
 C         11.375977    6.280331   -0.836123
 H         10.418198    4.740982    0.313963
 H          0.845317    4.650907    0.527674
 C          4.479707    8.366196   -0.911273
 H          4.350427    6.321476   -1.552495
 C          6.398991    8.919144    0.445198
 H          7.783988    7.325876    0.855392
 C         11.222518    7.251549   -1.833250
 H          9.856041    8.170489   -3.212481
 O         12.543380    6.018469   -0.180724
 C          5.214158    9.312307   -0.185602
 O          3.313300    8.626765   -1.568723
 H          6.960566    9.651956    1.017978
 H         12.057097    7.866377   -2.149274
 C         13.696829    6.776444   -0.528443
 H          4.878216   10.339393   -0.104002
 C          2.789448    9.949108   -1.514829
 H         13.546441    7.846466   -0.337891
 H         14.500414    6.405105    0.109266
 H         13.970962    6.630404   -1.580721
 H          3.482498   10.673895   -1.960043
 H          1.866414    9.927491   -2.096073
 H          2.563176   10.249399   -0.484135
 F          6.726509   -0.981988    0.180854
 F          4.314594   -0.227271    0.342904
 C         -0.552485    2.136628    0.323625
 C         -1.130660    0.913896    0.102155
 S         -1.765524    3.378720    0.681017
 C         -2.559144    0.911653    0.207346
 H         -0.555876    0.031763   -0.152296
 C         -3.071035    2.208125    0.509683
 C         -3.451014   -0.170900   -0.002116
 C         -4.436326    2.497018    0.604810
 C         -4.816253    0.117975    0.093160
 C         -2.983421   -1.534175   -0.303977
 C         -5.328067    1.414401    0.396005
 C         -4.904029    3.860323    0.906396
 S         -6.122188   -1.052503   -0.077413
 C         -3.343605   -2.339973   -1.355007
 S         -1.880511   -2.388380    0.771025
 C         -6.756438    1.412135    0.502602
 C         -4.544561    4.666296    1.957514
 S         -6.006658    4.714193   -0.169210
 C         -7.334723    0.189221    0.282704
 C         -2.721558   -3.616153   -1.285789
 H         -4.003678   -2.039851   -2.159907
 C         -1.897799   -3.828696   -0.217094
 H         -7.330910    2.294194    0.757965
 C         -5.166860    5.942355    1.887894
 H         -3.884998    4.366346    2.762894
 C         -5.990161    6.154610    0.818800
 C         -8.735287   -0.162895    0.311743
 F         -2.932934   -4.553559   -2.234249
 C         -1.111768   -5.059790    0.111164
 F         -4.956150    6.879870    2.836314
 C         -6.776741    7.385317    0.490422
 C         -9.310359   -1.415700    0.217504
 S         -9.970649    1.059385    0.503851
 H         -1.402968   -5.484844    1.078814
 H         -1.290571   -5.815542   -0.658808
 H         -0.034758   -4.858526    0.146801
 H         -6.486427    7.809952   -0.477687
 H         -6.597598    8.141499    1.259890
 H         -7.853727    7.183740    0.455760
 C        -10.719843   -1.403738    0.287023
 H         -8.732954   -2.327870    0.109766
 C        -11.270011   -0.140537    0.442150
 H        -11.330872   -2.290371    0.221991
 C        -12.676567    0.248945    0.537254
 C        -13.784759   -0.622444    0.204080
 C        -13.066137    1.504454    0.975596
 C        -15.148320   -0.187493    0.308906
 N        -13.528101   -1.887692   -0.192168
 C        -14.401795    1.922155    1.098061
 F        -12.150782    2.431523    1.318752
 C        -15.496576    1.134137    0.785736
 N        -16.136516   -1.026063   -0.071276
 C        -14.509123   -2.715509   -0.513443
 F        -14.561376    3.178566    1.557075
 C        -16.871631    1.620672    0.921437
 C        -15.867383   -2.245858   -0.507077
 C        -14.102118   -4.115535   -0.820212
 S        -17.264348    3.028282    1.920445
 C        -18.035111    1.119926    0.363154
 C        -17.033372   -3.028251   -1.005397
 C        -14.791236   -5.214459   -0.276112
 C        -12.967417   -4.336440   -1.605397
 C        -18.949162    2.882718    1.572590
 C        -19.205979    1.836298    0.728474
 H        -18.035935    0.254879   -0.281976
 C        -18.235895   -2.979409   -0.295085
 C        -16.971259   -3.750799   -2.210688
 C        -14.335147   -6.503825   -0.528335
 H        -15.662982   -5.057962    0.349682
 C        -12.522250   -5.639273   -1.868120
 H        -12.417722   -3.500568   -2.024618
 H        -19.648560    3.589259    2.000130
 H        -20.198410    1.579187    0.374650
 C        -19.370250   -3.656933   -0.762316
 H        -18.305067   -2.415894    0.629064
 C        -18.105048   -4.407931   -2.676379
 H        -16.050521   -3.782638   -2.782663
 C        -13.209040   -6.732524   -1.325774
 H        -14.858980   -7.353048   -0.098313
 O        -11.414847   -5.733139   -2.659212
 C        -19.307139   -4.376480   -1.962009
 O        -20.482020   -3.551686    0.021777
 H        -18.061779   -4.955976   -3.613543
 H        -12.880915   -7.748417   -1.511914
 C        -10.906629   -7.028841   -2.957105
 H        -20.172738   -4.904586   -2.344571
 C        -21.669103   -4.213412   -0.400362
 H        -11.643183   -7.633740   -3.500704
 H        -10.033078   -6.867610   -3.590529
 H        -10.602298   -7.559747   -2.046456
 H        -21.521441   -5.298543   -0.468044
 H        -22.418083   -3.997553    0.363080
 H        -22.017528   -3.833850   -1.369086
       186
T1: Total Energy = -9942.35242236
 C        -16.429648   -7.244838   -0.136626
 C        -16.697039   -5.920293   -0.002872
 C        -15.512031   -5.102216    0.009087
 C        -14.328987   -5.884968   -0.132353
 S        -14.723027   -7.599737   -0.261052
 H        -17.700843   -5.522128    0.074716
 C        -15.423013   -3.688456    0.088482
 C        -13.042815   -5.334631   -0.212200
 C        -14.142480   -3.137556    0.008360
 C        -12.954431   -3.920104   -0.131070
 C        -11.779345   -3.110979   -0.114180
 C        -12.021899   -1.758257    0.014502
 S        -13.761972   -1.420183    0.126408
 H        -10.778028   -3.518807   -0.175531
 C        -16.609327   -2.829300    0.247360
 C        -16.999848   -1.771103   -0.534038
 C        -18.176756   -1.147257   -0.037214
 C        -18.707372   -1.681180    1.102499
 S        -17.710968   -3.024570    1.607169
 H        -16.491358   -1.454761   -1.436836
 C        -11.859221   -6.193068   -0.372526
 C        -11.496225   -7.283368    0.379011
 C        -10.311983   -7.897830   -0.109619
 C         -9.748354   -7.327219   -1.215685
 S        -10.720339   -5.958325   -1.696252
 H        -12.027866   -7.626896    1.258089
 C        -11.075061   -0.691458    0.062521
 C        -11.315745    0.674620    0.231721
 C        -10.168969    1.461670    0.236515
 C         -8.962343    0.743406    0.069065
 S         -9.351198   -0.990769   -0.091084
 H        -12.312928    1.084249    0.355214
 H        -10.167040    2.531848    0.366103
 C        -19.930350   -1.240497    1.845084
 H        -19.696779   -0.932102    2.870831
 H        -20.375946   -0.386296    1.327616
 H        -20.683228   -2.035480    1.900085
 C         -8.508819   -7.749408   -1.941144
 H         -8.716421   -8.016090   -2.984014
 H         -8.083830   -8.626403   -1.444963
 H         -7.749500   -6.958763   -1.944679
 H        -17.141451   -8.059413   -0.172334
 F        -18.734516   -0.093390   -0.670489
 F         -9.777914   -8.977894    0.498895
 C         -7.626452    1.235044    0.019544
 C         -7.263398    2.652085    0.074350
 C         -6.505891    0.362693   -0.075077
 C         -5.893984    3.089007    0.008213
 N         -8.232962    3.569353    0.210800
 C         -5.201022    0.774660   -0.104630
 C         -4.782114    2.136694   -0.072073
 N         -5.629847    4.403144    0.000004
 C         -7.949759    4.876184    0.252790
 C         -3.412850    2.502420   -0.128789
 C         -6.611793    5.308922    0.084320
 C         -9.105835    5.776734    0.520182
 S         -2.094836    1.297673   -0.147868
 C         -2.838533    3.801840   -0.177353
 C         -6.188739    6.730621   -0.050323
 C         -9.025591    6.807423    1.474116
 C        -10.315198    5.552093   -0.143325
 C         -0.857109    2.549277   -0.204308
 C         -1.455146    3.820176   -0.218202
 H         -3.460488    4.682250   -0.189152
 C         -5.043539    7.169233    0.620318
 C         -6.878337    7.624096   -0.890165
 C        -10.145261    7.588189    1.740173
 H         -8.098927    6.982435    2.009817
 C        -11.436643    6.350414    0.120237
 H        -10.400302    4.759280   -0.878998
 H         -0.877200    4.737602   -0.259208
 C         -4.588373    8.486928    0.475970
 H         -4.494377    6.495685    1.269754
 C         -6.414576    8.926685   -1.039049
 H         -7.758519    7.293636   -1.430839
 C        -11.354428    7.376566    1.069280
 H        -10.086191    8.376796    2.485413
 O        -12.556241    6.046330   -0.599490
 C         -5.276222    9.374516   -0.360385
 O         -3.469365    8.803627    1.191149
 H         -6.940732    9.612782   -1.697226
 H        -12.209586    8.003591    1.292925
 C        -13.730128    6.819043   -0.377418
 H         -4.939810   10.396367   -0.491386
 C         -2.954637   10.125852    1.085215
 H        -13.566306    7.876991   -0.618243
 H        -14.487886    6.409366   -1.047142
 H        -14.077590    6.733281    0.659816
 H         -3.683173   10.869585    1.431944
 H         -2.073990   10.155474    1.728750
 H         -2.659691   10.360741    0.054781
 F         -6.702996   -0.972825   -0.130397
 F         -4.274706   -0.205489   -0.182966
 C          0.522333    2.226644   -0.234941
 C          1.109188    0.968393   -0.198674
 S          1.752672    3.505588   -0.327265
 C          2.527069    0.980960   -0.247103
 H          0.525517    0.059859   -0.117888
 C          3.051279    2.312453   -0.304353
 C          3.417133   -0.130413   -0.190247
 C          4.413587    2.605415   -0.290339
 C          4.781674    0.166295   -0.175533
 C          2.940875   -1.520824   -0.147592
 C          5.302426    1.495015   -0.230272
 C          4.892852    3.996747   -0.337786
 S          6.084920   -1.020064   -0.155834
 C          3.287586   -2.506628    0.743385
 S          1.848252   -2.161980   -1.372479
 C          6.727762    1.507853   -0.275767
 C          4.581128    4.967968   -1.256039
 S          5.942430    4.653642    0.914852
 C          7.305425    0.260174   -0.245231
 C          2.664825   -3.746061    0.436307
 H          3.936116   -2.360247    1.598656
 C          1.853246   -3.757474   -0.662821
 H          7.308860    2.418643   -0.353061
 C          5.196347    6.211287   -0.946381
 H          3.960547    4.809528   -2.129801
 C          5.968414    6.238162    0.180182
 C          8.704218   -0.082242   -0.274112
 F          2.863098   -4.840794    1.200459
 C          1.069517   -4.905572   -1.218211
 F          5.027973    7.294336   -1.734343
 C          6.735464    7.392980    0.745083
 C          9.281744   -1.334802   -0.384574
 S          9.941954    1.150410   -0.179156
 H          1.370996   -5.147810   -2.243970
 H          1.238920   -5.789480   -0.596996
 H         -0.006679   -4.697358   -1.227987
 H          6.399515    7.651273    1.756105
 H          6.589547    8.267812    0.105300
 H          7.810296    7.183299    0.794933
 C         10.690622   -1.315263   -0.385999
 H          8.704409   -2.248994   -0.473669
 C         11.242766   -0.045849   -0.279706
 H         11.303054   -2.200095   -0.459709
 C         12.649874    0.346768   -0.236049
 C         13.748891   -0.582052   -0.063125
 C         13.052024    1.666570   -0.372553
 C         15.113922   -0.141135   -0.021244
 N         13.482969   -1.902176    0.035513
 C         14.389226    2.094690   -0.350338
 F         12.146871    2.650836   -0.536578
 C         15.474827    1.252041   -0.178725
 N         16.091247   -1.048034    0.194581
 C         14.454723   -2.785397    0.199028
 F         14.561008    3.420761   -0.513252
 C         16.851471    1.750500   -0.149201
 C         15.811305   -2.333002    0.339180
 C         14.040408   -4.216372    0.179348
 S         17.275844    3.346089   -0.788051
 C         17.995128    1.131663    0.326151
 C         16.962412   -3.213528    0.684869
 C         14.742522   -5.171637   -0.577485
 C         12.887299   -4.599099    0.869731
 C         18.946432    3.118557   -0.417112
 C         19.175554    1.907282    0.177967
 H         17.975168    0.143283    0.758836
 C         18.184737   -3.017977    0.036296
 C         16.864891   -4.183878    1.698597
 C         14.280504   -6.482495   -0.626821
 H         15.629188   -4.885335   -1.132418
 C         12.436034   -5.925456    0.828076
 H         12.328011   -3.873946    1.451137
 H         19.658623    3.900364   -0.646705
 H         20.154840    1.572870    0.502545
 C         19.304321   -3.790892    0.373085
 H         18.281209   -2.265017   -0.738456
 C         17.984009   -4.936268    2.038510
 H         15.928150   -4.334215    2.223814
 C         13.135566   -6.875657    0.073852
 H         14.814489   -7.218641   -1.221312
 O         11.310195   -6.185517    1.553091
 C         19.205905   -4.757101    1.381921
 O         20.438004   -3.523760   -0.337647
 H         17.913397   -5.677438    2.829829
 H         12.803014   -7.905876    0.023539
 C         10.795934   -7.512725    1.547396
 H         20.059269   -5.363495    1.662037
 C         21.611661   -4.272108   -0.041045
 H         11.520039   -8.225450    1.961596
 H          9.907753   -7.490568    2.180600
 H         10.513310   -7.829243    0.535621
 H         21.460108   -5.344173   -0.218907
 H         22.381738   -3.898937   -0.717894
 H         21.934304   -4.118776    0.996376
       186
S1: Total Energy = -9942.33528560
 C        -16.393021   -7.274292   -0.271229
 C        -16.666393   -5.952259   -0.122916
 C        -15.485211   -5.129824   -0.089039
 C        -14.297420   -5.905035   -0.229821
 S        -14.683766   -7.620085   -0.384438
 H        -17.672514   -5.558980   -0.050007
 C        -15.402666   -3.716154    0.008140
 C        -13.012684   -5.348174   -0.292855
 C        -14.124445   -3.158685   -0.055054
 C        -12.930659   -3.933406   -0.194083
 C        -11.760347   -3.118515   -0.156469
 C        -12.009647   -1.770245   -0.013167
 S        -13.751330   -1.441508    0.086754
 H        -10.756310   -3.520492   -0.211853
 C        -16.594191   -2.864514    0.167077
 C        -16.980839   -1.796025   -0.602222
 C        -18.165634   -1.184576   -0.108864
 C        -18.706404   -1.737818    1.016755
 S        -17.709931   -3.084794    1.511797
 H        -16.463766   -1.463806   -1.494357
 C        -11.825069   -6.199456   -0.454210
 C        -11.471537   -7.307416    0.276489
 C        -10.279423   -7.908897   -0.208264
 C         -9.699450   -7.311687   -1.291743
 S        -10.665400   -5.932548   -1.754589
 H        -12.015320   -7.671778    1.139569
 C        -11.069074   -0.693491    0.056932
 C        -11.316226    0.660000    0.261714
 C        -10.166182    1.457007    0.279048
 C         -8.969132    0.753084    0.088182
 S         -9.346688   -0.973917   -0.114211
 H        -12.314131    1.062417    0.403013
 H        -10.170428    2.524205    0.432700
 C        -19.939124   -1.313196    1.752524
 H        -19.717898   -1.018895    2.785145
 H        -20.382832   -0.453301    1.242898
 H        -20.689190   -2.111978    1.787846
 C         -8.447835   -7.714977   -2.007006
 H         -8.638303   -7.957839   -3.058967
 H         -8.028841   -8.602486   -1.524565
 H         -7.690230   -6.923086   -1.980434
 H        -17.101147   -8.091130   -0.323876
 F        -18.721109   -0.123521   -0.732261
 F         -9.752888   -9.002437    0.382886
 C         -7.617196    1.252256    0.039094
 C         -7.263510    2.660338    0.098971
 C         -6.508241    0.389055   -0.060095
 C         -5.893466    3.103156    0.028848
 N         -8.240037    3.577754    0.247175
 C         -5.194199    0.809671   -0.096557
 C         -4.789454    2.158904   -0.061693
 N         -5.630349    4.422841    0.027509
 C         -7.955728    4.881823    0.293115
 C         -3.403543    2.538307   -0.126795
 C         -6.616669    5.321058    0.122543
 C         -9.111577    5.780780    0.570383
 S         -2.093071    1.339161   -0.102727
 C         -2.842173    3.827585   -0.212451
 C         -6.200570    6.745469   -0.003085
 C         -9.030727    6.803908    1.532621
 C        -10.323076    5.560397   -0.090811
 C         -0.854215    2.585659   -0.192241
 C         -1.450955    3.849830   -0.249115
 H         -3.466864    4.705531   -0.250147
 C         -5.042271    7.178464    0.649530
 C         -6.906098    7.649562   -0.818787
 C        -10.150256    7.581576    1.808088
 H         -8.102794    6.975354    2.067338
 C        -11.444583    6.355273    0.182411
 H        -10.409367    4.771931   -0.830981
 H         -0.876664    4.768087   -0.317167
 C         -4.591246    8.498058    0.512368
 H         -4.479709    6.496752    1.278520
 C         -6.446874    8.954449   -0.960443
 H         -7.795619    7.324983   -1.347453
 C        -11.361286    7.374192    1.139016
 H        -10.089824    8.364184    2.559628
 O        -12.566479    6.055499   -0.536619
 C         -5.295877    9.395800   -0.298702
 O         -3.457646    8.807307    1.209221
 H         -6.986477    9.647722   -1.600070
 H        -12.216579    7.998378    1.370064
 C        -13.740880    6.823143   -0.302444
 H         -4.963187   10.419676   -0.423497
 C         -2.948082   10.131612    1.110434
 H        -13.580957    7.883800   -0.534234
 H        -14.500854    6.417855   -0.972421
 H        -14.083682    6.727391    0.735542
 H         -3.671002   10.869366    1.481070
 H         -2.054808   10.155318    1.736723
 H         -2.674156   10.381116    0.077534
 F         -6.691752   -0.949296   -0.119833
 F         -4.269858   -0.173153   -0.181606
 C          0.524184    2.258706   -0.208062
 C          1.108213    0.995958   -0.122620
 S          1.757719    3.524099   -0.345158
 C          2.517199    0.998638   -0.171963
 H          0.517580    0.096618   -0.001985
 C          3.052805    2.327004   -0.276499
 C          3.404522   -0.121988   -0.069393
 C          4.411853    2.613261   -0.262799
 C          4.766035    0.167601   -0.055881
 C          2.917481   -1.503538    0.020200
 C          5.298116    1.493720   -0.158215
 C          4.902183    3.995987   -0.356160
 S          6.064043   -1.025809    0.006823
 C          3.285173   -2.472070    0.923661
 S          1.784139   -2.166642   -1.156633
 C          6.711638    1.498371   -0.205975
 C          4.569496    4.949077   -1.287334
 S          5.992516    4.674150    0.850377
 C          7.291867    0.241303   -0.126613
 C          2.647514   -3.713409    0.663835
 H          3.955583   -2.309689    1.758887
 C          1.803650   -3.744695   -0.411332
 H          7.298924    2.401093   -0.320143
 C          5.200695    6.194084   -1.024041
 H          3.925529    4.774938   -2.140875
 C          6.004919    6.240853    0.079882
 C          8.679314   -0.093383   -0.142405
 F          2.861183   -4.791174    1.446389
 C          0.998513   -4.900507   -0.917297
 F          5.017128    7.259768   -1.830559
 C          6.792466    7.403620    0.597926
 C          9.263903   -1.356554   -0.135455
 S          9.919096    1.146105   -0.186702
 H          1.269440   -5.167447   -1.945417
 H          1.180799   -5.770911   -0.280965
 H         -0.076219   -4.685509   -0.901413
 H          6.484431    7.685895    1.611369
 H          6.633951    8.264644   -0.057282
 H          7.867021    7.188609    0.624137
 C         10.663752   -1.335842   -0.159534
 H          8.687066   -2.275218   -0.120700
 C         11.220741   -0.055136   -0.186717
 H         11.280015   -2.220825   -0.160223
 C         12.621256    0.331894   -0.207381
 C         13.730089   -0.594371   -0.058888
 C         13.020150    1.652942   -0.389649
 C         15.096011   -0.151043   -0.085729
 N         13.471295   -1.910173    0.082305
 C         14.351779    2.078670   -0.436583
 F         12.105945    2.631606   -0.538990
 C         15.449574    1.238793   -0.292621
 N         16.081256   -1.053157    0.111440
 C         14.451275   -2.791286    0.225413
 F         14.516303    3.401230   -0.636082
 C         16.821325    1.739525   -0.337578
 C         15.809252   -2.335903    0.297163
 C         14.037910   -4.221722    0.257291
 S         17.200575    3.371582   -0.919024
 C         18.000304    1.101519    0.019070
 C         16.975209   -3.208359    0.611909
 C         14.705460   -5.193680   -0.509654
 C         12.919004   -4.590078    1.009410
 C         18.892409    3.130685   -0.680324
 C         19.164902    1.888533   -0.171728
 H         18.010907    0.092772    0.401250
 C         18.164666   -3.035095   -0.100955
 C         16.925697   -4.149969    1.655698
 C         14.243570   -6.505483   -0.508204
 H         15.564782   -4.919377   -1.111677
 C         12.467782   -5.917033    1.017912
 H         12.388059   -3.853589    1.603148
 H         19.586465    3.926312   -0.918140
 H         20.165354    1.540882    0.061467
 C         19.298313   -3.801357    0.202529
 H         18.224197   -2.306425   -0.902286
 C         18.058828   -4.896069    1.961451
 H         16.015292   -4.282773    2.229759
 C         13.132653   -6.883456    0.252987
 H         14.750529   -7.254466   -1.110270
 O         11.377213   -6.161256    1.800234
 C         19.247729   -4.738660    1.241733
 O         20.396102   -3.557487   -0.570051
 H         18.025594   -5.614942    2.775467
 H         12.799426   -7.914581    0.240530
 C         10.865506   -7.488707    1.848825
 H         20.112687   -5.339591    1.496945
 C         21.581749   -4.300814   -0.310480
 H         11.609958   -8.191649    2.243061
 H         10.009021   -7.453051    2.523720
 H         10.534626   -7.827694    0.859215
 H         21.419664   -5.376955   -0.450213
 H         22.318136   -3.949312   -1.034747
 H         21.955344   -4.119155    0.705028
