       158
S0: Total Energy = -7173.24872340
 C         13.017135   -7.610399   -0.148791
 C         13.651574   -6.480811   -0.543087
 C         12.679152   -5.416483   -0.459073
 C         11.490808   -6.033338    0.010157
 H         14.685331   -6.401479   -0.844915
 C         12.736801   -4.023156   -0.692621
 C         10.289684   -5.384207    0.302857
 C         11.536944   -3.374137   -0.402469
 C         10.347030   -3.990301    0.067723
 C          9.378327   -2.933500    0.146710
 C         10.005621   -1.783945   -0.249025
 H          8.342575   -3.020911    0.440783
 C          9.574607   -0.419230   -0.381874
 C         10.307882    0.653753   -0.853534
 C          9.597100    1.873625   -0.842498
 C          8.303205    1.763325   -0.365234
 S          7.972848    0.086756    0.094130
 H         11.329454    0.551850   -1.199549
 H         10.007378    2.814794   -1.174437
 C          7.233290    2.737611   -0.276361
 C          7.200248    4.108761   -0.020943
 C          5.858164    4.658077    0.004554
 C          4.865495    3.706862   -0.232056
 S          5.603027    2.143807   -0.520045
 C          8.388466    4.935535    0.309361
 O          9.546688    4.528228    0.189764
 C          5.601937    6.075979    0.363829
 O          4.487285    6.599011    0.288139
 C          9.066477    7.165696    1.270748
 C          8.103740    6.290767    0.811275
 C          6.771337    6.835654    0.838408
 C          6.714156    8.127497    1.319534
 S          8.314630    8.661386    1.749031
 C          3.417366    3.763288   -0.275634
 C          2.558422    4.755590   -0.713974
 C          1.196803    4.383901   -0.690435
 C          0.981470    3.097814   -0.230173
 S          2.491709    2.329800    0.191483
 H          2.916330    5.718882   -1.043062
 H          0.387229    5.031851   -1.004294
 C         10.549687    6.987645    1.389677
 H         11.001427    6.846796    0.402002
 H         11.017441    7.852989    1.868216
 H         10.785351    6.091205    1.971349
 C          5.536365    9.037235    1.495228
 H          4.761472    8.553104    2.097371
 H          5.826087    9.974369    1.979420
 H          5.080379    9.269392    0.526949
 H         13.340559   -8.636283   -0.052829
 C         -0.276940    2.423620   -0.070976
 C         -0.622623    1.158602    0.321920
 C         -2.053970    1.081908    0.280885
 H          0.064028    0.369044    0.590402
 C         -2.486606    2.359528   -0.165614
 C         -2.981358    0.041933    0.532942
 C         -3.804354    2.738209   -0.416775
 C         -4.299164    0.420627    0.282008
 C         -4.731698    1.698375   -0.164482
 C         -6.163058    1.622120   -0.204746
 C         -6.508966    0.357382    0.188594
 H         -6.849621    2.411890   -0.472778
 C         -7.768215   -0.315209    0.348653
 C         -7.986446   -1.600260    0.810069
 S         -9.276817    0.455885   -0.073334
 C         -9.349261   -1.968568    0.834481
 H         -7.178400   -2.249977    1.124274
 C        -10.205689   -0.974508    0.395842
 H         -9.709566   -2.930854    1.164027
 C        -11.654073   -0.914088    0.351972
 C        -12.648889   -1.862829    0.116410
 S        -12.388330    0.651422    0.635149
 C        -13.989625   -1.308112    0.140505
 C        -12.398384   -3.281690   -0.241222
 C        -14.018036    0.061835    0.389778
 C        -15.182603   -2.133278   -0.180474
 O        -11.286032   -3.809659   -0.164954
 C        -13.571196   -4.036904   -0.715879
 C        -15.087566    1.043434    0.471092
 O        -16.338746   -1.725366   -0.049022
 C        -14.902279   -3.488425   -0.686108
 C        -13.518455   -5.328165   -1.198963
 C        -16.368502    0.945482    0.976551
 S        -14.774385    2.703421   -0.048305
 C        -15.867995   -4.359894   -1.145571
 S        -15.120994   -5.856813   -1.627620
 C        -12.343606   -6.241262   -1.377254
 C        -17.083176    2.173636    0.954145
 H        -16.771453    0.015574    1.347902
 C        -16.356179    3.210137    0.431430
 C        -17.350907   -4.177354   -1.261508
 H        -11.888696   -6.478093   -0.409597
 H        -12.636303   -7.175883   -1.864514
 H        -11.566935   -5.757780   -1.977592
 H        -18.101338    2.280288    1.311960
 H        -17.584836   -3.272829   -1.831102
 H        -17.820670   -5.035436   -1.751038
 H        -17.802159   -4.048804   -0.271855
 H        -16.660215    4.238038    0.284486
 C         13.941168   -3.327774   -1.202274
 C         14.698834   -3.874199   -2.251742
 C         14.361965   -2.101252   -0.659398
 C         15.834959   -3.224144   -2.730643
 H         14.379250   -4.802607   -2.715960
 C         15.498800   -1.458153   -1.142614
 H         13.796784   -1.652453    0.151056
 C         16.261148   -2.007147   -2.183319
 H         16.394831   -3.666751   -3.551578
 H         15.801829   -0.511569   -0.700347
 C          9.086374   -6.077943    0.814552
 C          8.319467   -5.522004    1.852331
 C          8.670298   -7.310237    0.279931
 C          7.179909   -6.168435    2.328409
 H          8.630171   -4.585608    2.306300
 C          7.530252   -7.949004    0.759823
 H          9.238707   -7.762936   -0.525895
 C          6.762444   -7.393575    1.793542
 H          6.609095   -5.714520    3.135436
 H          7.226980   -8.896184    0.318927
 C         -2.592134   -1.299867    1.022496
 C         -1.633356   -1.445699    2.039510
 C         -3.170964   -2.467045    0.494358
 C         -1.263267   -2.707630    2.500624
 H         -1.195141   -0.561940    2.493931
 C         -2.795016   -3.724551    0.959811
 H         -3.915525   -2.387513   -0.291036
 C         -1.831483   -3.871872    1.967500
 H         -0.526216   -2.787893    3.296543
 H         -3.257520   -4.610101    0.529396
 C         -4.192110    4.080357   -0.906604
 C         -3.615538    5.246983   -0.374076
 C         -5.152471    4.227994   -1.921461
 C         -3.993659    6.505190   -0.835072
 H         -2.876875    5.166229    0.416785
 C         -5.524922    5.491105   -2.378254
 H         -5.596240    3.345355   -2.372612
 C         -4.953450    6.654035   -1.846501
 H         -3.538476    7.390372   -0.396106
 H         -6.268733    5.573107   -3.167639
 C         17.509947   -1.319100   -2.682027
 H         18.383757   -1.593842   -2.075868
 H         17.733032   -1.595573   -3.717753
 H         17.413812   -0.229051   -2.633458
 C          5.543501   -8.107986    2.327715
 H          4.865055   -7.416304    2.837498
 H          4.985569   -8.603045    1.525230
 H          5.823923   -8.884610    3.051907
 C         -1.406277   -5.239842    2.446218
 H         -2.234893   -5.954837    2.403999
 H         -0.597481   -5.644552    1.822917
 H         -1.036775   -5.206619    3.476458
 C         -5.336162    8.021333   -2.361729
 H         -6.328327    8.011850   -2.824507
 H         -5.342113    8.765248   -1.557588
 H         -4.624779    8.372605   -3.121212
 O         11.709023   -7.378503    0.192329
 O         11.321377   -2.030280   -0.585931
 O         -1.398135    3.170554   -0.370631
 O         -5.387950   -0.390008    0.487712
       158
T1: Total Energy = -7173.19767135
 C        -12.717787   -7.737531   -0.230621
 C        -13.344145   -6.668201    0.316443
 C        -12.415471   -5.566301    0.234776
 C        -11.259460   -6.098393   -0.393526
 H        -14.346318   -6.652070    0.718214
 C        -12.491512   -4.199867    0.592210
 C        -10.111231   -5.384135   -0.738851
 C        -11.344695   -3.485216    0.249919
 C        -10.186330   -4.016786   -0.379134
 C         -9.260975   -2.925423   -0.454950
 C         -9.880784   -1.832622    0.094795
 H         -8.255401   -2.950156   -0.848876
 C         -9.474699   -0.475224    0.301008
 C        -10.196928    0.538617    0.913625
 C         -9.524531    1.771179    0.951326
 C         -8.258729    1.748218    0.367411
 S         -7.926105    0.113639   -0.249510
 H        -11.185323    0.377254    1.327041
 H         -9.925842    2.667021    1.396176
 C         -7.224433    2.739125    0.254604
 C         -7.212326    4.149556    0.195877
 C         -5.915341    4.714064   -0.037114
 C         -4.865476    3.735101   -0.064145
 S         -5.583254    2.120547    0.097356
 C         -8.425166    5.007540    0.300014
 O         -9.532215    4.567817    0.622178
 C         -5.738641    6.135868   -0.378315
 O         -4.652354    6.617479   -0.736271
 C         -9.247164    7.373334    0.020050
 C         -8.235232    6.434503    0.009227
 C         -6.944807    6.977710   -0.313770
 C         -6.964798    8.335600   -0.552560
 S         -8.592641    8.936871   -0.373383
 C         -3.466138    3.804851   -0.115530
 C         -2.559957    4.895713    0.074001
 C         -1.232334    4.540971    0.060532
 C         -0.995195    3.157455   -0.144600
 S         -2.528100    2.298362   -0.334756
 H         -2.923478    5.901633    0.209913
 H         -0.416526    5.239815    0.204423
 C        -10.709040    7.208516    0.304256
 H        -10.865325    6.835882    1.322060
 H        -11.245916    8.154761    0.190504
 H        -11.151807    6.468484   -0.369974
 C         -5.849246    9.267200   -0.918626
 H         -5.429588    9.003988   -1.895378
 H         -6.193215   10.305180   -0.954641
 H         -5.030603    9.190582   -0.196672
 H        -13.019760   -8.762948   -0.384208
 C          0.233096    2.499668   -0.202606
 C          0.583095    1.152279   -0.369345
 C          1.990800    1.076416   -0.351021
 H         -0.116469    0.334932   -0.464633
 C          2.451668    2.417815   -0.152503
 C          2.911393   -0.011694   -0.433133
 C          3.769245    2.813986   -0.003713
 C          4.232962    0.390149   -0.281750
 C          4.688662    1.725115   -0.085252
 C          6.107343    1.645676   -0.064288
 C          6.444111    0.318461   -0.228009
 H          6.804331    2.464473    0.039561
 C          7.691007   -0.374957   -0.285939
 C          7.896530   -1.730645   -0.498453
 S          9.214365    0.451246   -0.052611
 C          9.252946   -2.105838   -0.481309
 H          7.079323   -2.421979   -0.665809
 C         10.125998   -1.051061   -0.259142
 H          9.602713   -3.115911   -0.627891
 C         11.572508   -0.996926   -0.257980
 C         12.569135   -1.900190    0.117794
 S         12.309167    0.489916   -0.824102
 C         13.910993   -1.371066   -0.034464
 C         12.320133   -3.228826    0.729861
 C         13.940860   -0.064738   -0.517798
 C         15.107962   -2.140199    0.394592
 O         11.201371   -3.746961    0.784105
 C         13.500931   -3.902727    1.296836
 C         15.012735    0.878287   -0.791313
 O         16.262194   -1.774305    0.161890
 C         14.833926   -3.382409    1.137353
 C         13.453338   -5.089017    1.999800
 C         16.280892    0.683973   -1.301695
 S         14.719856    2.605648   -0.557858
 C         15.806350   -4.170084    1.718022
 S         15.063648   -5.551666    2.473517
 C         12.277817   -5.943871    2.364597
 C         17.001561    1.891377   -1.506643
 H         16.670128   -0.299392   -1.517120
 C         16.292100    3.008525   -1.153049
 C         17.292667   -3.984694    1.763757
 H         11.790924   -6.334031    1.464645
 H         12.578382   -6.786786    2.993635
 H         11.523924   -5.356100    2.897215
 H         18.011359    1.926230   -1.900508
 H         17.546099   -2.998895    2.165521
 H         17.770845   -4.751491    2.380157
 H         17.717939   -4.030063    0.755571
 H         16.604598    4.043662   -1.191332
 C        -13.661452   -3.595215    1.270065
 C        -14.294622   -4.253312    2.337613
 C        -14.171157   -2.346395    0.874176
 C        -15.397347   -3.688205    2.975933
 H        -13.902358   -5.202928    2.689704
 C        -15.273885   -1.788660    1.516229
 H        -13.702861   -1.812615    0.053473
 C        -15.912372   -2.448528    2.575845
 H        -15.859617   -4.216690    3.806740
 H        -15.648032   -0.822057    1.185864
 C         -8.942971   -5.986861   -1.418415
 C         -8.297033   -5.317806   -2.471835
 C         -8.441043   -7.242758   -1.033434
 C         -7.190544   -5.879042   -3.106927
 H         -8.678075   -4.359550   -2.812430
 C         -7.334236   -7.795768   -1.671580
 H         -8.914936   -7.781843   -0.219671
 C         -6.687079   -7.127751   -2.721095
 H         -6.714483   -5.338561   -3.921969
 H         -6.961558   -8.764027   -1.344403
 C          2.495763   -1.410827   -0.663283
 C          1.495034   -1.721861   -1.601083
 C          3.089892   -2.474861    0.039083
 C          1.101739   -3.040256   -1.819038
 H          1.043443   -0.927294   -2.187509
 C          2.688740   -3.789377   -0.182975
 H          3.864203   -2.268068    0.770458
 C          1.684621   -4.099724   -1.111039
 H          0.333399   -3.250047   -2.559724
 H          3.162477   -4.591012    0.379260
 C          4.188371    4.214710    0.227004
 C          3.622200    5.275132   -0.501951
 C          5.168826    4.525691    1.184334
 C          4.028210    6.588833   -0.282885
 H          2.869566    5.065540   -1.255127
 C          5.568607    5.843457    1.398629
 H          5.606671    3.731722    1.782247
 C          5.006874    6.900858    0.671554
 H          3.580444    7.387771   -0.869799
 H          6.326961    6.053631    2.149482
 C        -17.125832   -1.850922    3.248093
 H        -18.044926   -2.095579    2.698726
 H        -17.245876   -2.230115    4.268205
 H        -17.060273   -0.758569    3.296122
 C         -5.505062   -7.748435   -3.427506
 H         -4.891025   -6.989718   -3.923467
 H         -4.866441   -8.301110   -2.729708
 H         -5.831776   -8.459503   -4.198142
 C          1.232052   -5.524620   -1.323559
 H          2.051130   -6.233590   -1.162770
 H          0.428745   -5.793209   -0.624295
 H          0.844015   -5.674846   -2.336424
 C          5.420276    8.331315    0.924539
 H          6.432611    8.388917    1.337592
 H          5.392840    8.924828    0.004369
 H          4.746595    8.817317    1.643029
 O        -11.455637   -7.430794   -0.669888
 O        -11.151755   -2.154552    0.527697
 O          1.376022    3.268519   -0.073335
 O          5.311447   -0.455701   -0.360637
       158
S1: Total Energy = -7173.17979291
 C        -12.409171   -7.910491   -0.007286
 C        -13.120871   -6.824733    0.383520
 C        -12.222093   -5.700194    0.308163
 C        -10.990867   -6.235455   -0.152528
 H        -14.160004   -6.814917    0.676906
 C        -12.376816   -4.311888    0.543157
 C         -9.834810   -5.508029   -0.437661
 C        -11.224093   -3.583795    0.262391
 C         -9.988588   -4.118076   -0.200096
 C         -9.095245   -3.005473   -0.268544
 C         -9.802048   -1.892563    0.124883
 H         -8.052899   -3.022319   -0.551504
 C         -9.456587   -0.515034    0.260541
 C        -10.265321    0.520755    0.714636
 C         -9.632404    1.771340    0.729073
 C         -8.308597    1.747594    0.284052
 S         -7.872364    0.084345   -0.171043
 H        -11.287855    0.357839    1.034031
 H        -10.101490    2.684173    1.058192
 C         -7.293789    2.759748    0.210050
 C         -7.303535    4.164140    0.081145
 C         -5.994014    4.750980   -0.021878
 C         -4.940144    3.803066    0.062963
 S         -5.629178    2.188614    0.259871
 C         -8.536711    4.987539   -0.023839
 O         -9.669563    4.526392    0.144068
 C         -5.807966    6.187082   -0.316274
 O         -4.694253    6.714980   -0.444205
 C         -9.369557    7.312348   -0.527486
 C         -8.343052    6.408834   -0.343913
 C         -7.033741    6.984358   -0.481942
 C         -7.054270    8.332937   -0.772549
 S         -8.705704    8.883709   -0.877331
 C         -3.519098    3.883898    0.047438
 C         -2.631006    4.944852    0.309666
 C         -1.287552    4.585790    0.290508
 C         -1.060265    3.230436    0.013077
 S         -2.583939    2.396428   -0.244269
 H         -2.992162    5.941445    0.506074
 H         -0.474505    5.276110    0.482430
 C        -10.852889    7.109886   -0.464878
 H        -11.154681    6.772172    0.532129
 H        -11.390967    8.032683   -0.700618
 H        -11.165993    6.329817   -1.166060
 C         -5.921938    9.290392   -0.989345
 H         -5.297856    8.967706   -1.828959
 H         -6.288609   10.301025   -1.192265
 H         -5.269727    9.322133   -0.110763
 H        -12.663875   -8.955226   -0.106747
 C          0.177246    2.561504   -0.071026
 C          0.522787    1.232558   -0.302694
 C          1.930435    1.151283   -0.273762
 H         -0.176747    0.422926   -0.450384
 C          2.391109    2.479203   -0.001256
 C          2.851882    0.064223   -0.401424
 C          3.706257    2.866837    0.185556
 C          4.168263    0.453884   -0.213150
 C          4.626956    1.779958    0.058242
 C          6.037684    1.698444    0.089240
 C          6.380674    0.373599   -0.139887
 H          6.735796    2.508936    0.239599
 C          7.621598   -0.304571   -0.218857
 C          7.839467   -1.655308   -0.494188
 S          9.144730    0.517505    0.059439
 C          9.188623   -2.022972   -0.492968
 H          7.025565   -2.341101   -0.697471
 C         10.068099   -0.971855   -0.219845
 H          9.546790   -3.022140   -0.683946
 C         11.503431   -0.908277   -0.214912
 C         12.525237   -1.851874    0.000259
 S         12.221671    0.664305   -0.541289
 C         13.854804   -1.284656   -0.092436
 C         12.309719   -3.256737    0.406342
 C         13.863903    0.085977   -0.355546
 C         15.073563   -2.095625    0.167343
 O         11.192238   -3.788194    0.448118
 C         13.515423   -4.009878    0.791124
 C         14.916214    1.077350   -0.485875
 O         16.216363   -1.671519   -0.022308
 C         14.838588   -3.455188    0.677737
 C         13.502508   -5.304060    1.270755
 C         16.188392    0.992736   -1.020058
 S         14.586427    2.745526    0.004926
 C         15.838460   -4.322558    1.067566
 S         15.134202   -5.826810    1.587456
 C         12.348573   -6.225823    1.526224
 C         16.880278    2.232731   -1.040505
 H         16.598531    0.062958   -1.382717
 C         16.147237    3.268160   -0.522737
 C         17.324319   -4.129494    1.088245
 H         11.806213   -6.432265    0.597762
 H         12.684786   -7.174807    1.954435
 H         11.629858   -5.764988    2.211072
 H         17.887629    2.349349   -1.424913
 H         17.589539   -3.236441    1.662504
 H         17.832130   -4.994335    1.525153
 H         17.707347   -3.973717    0.074082
 H         16.436831    4.304033   -0.405311
 C        -13.629899   -3.702669    1.044874
 C        -14.353573   -4.300617    2.090075
 C        -14.131495   -2.508565    0.498232
 C        -15.534767   -3.730644    2.562002
 H        -13.973128   -5.204405    2.557034
 C        -15.312934   -1.946005    0.974308
 H        -13.594395   -2.022283   -0.309698
 C        -16.041128   -2.546405    2.011293
 H        -16.067330   -4.210627    3.380005
 H        -15.678553   -1.023062    0.529479
 C         -8.585234   -6.116199   -0.942254
 C         -7.843515   -5.499904   -1.964838
 C         -8.097921   -7.326940   -0.417120
 C         -6.661034   -6.067838   -2.435429
 H         -8.208143   -4.580438   -2.413051
 C         -6.914783   -7.886066   -0.890869
 H         -8.644628   -7.824035    0.377308
 C         -6.172636   -7.270609   -1.909577
 H         -6.111885   -5.569674   -3.231196
 H         -6.556765   -8.817221   -0.457068
 C          2.434770   -1.319071   -0.708035
 C          1.441467   -1.577345   -1.669390
 C          3.020484   -2.420616   -0.057202
 C          1.047948   -2.881571   -1.960625
 H          0.996798   -0.752066   -2.217345
 C          2.618678   -3.720024   -0.351869
 H          3.787945   -2.254666    0.691541
 C          1.622339   -3.978284   -1.304703
 H          0.286086   -3.050043   -2.718290
 H          3.085268   -4.551438    0.171789
 C          4.123595    4.251369    0.493265
 C          3.554276    5.350373   -0.174275
 C          5.105387    4.509936    1.465696
 C          3.958976    6.650100    0.117447
 H          2.801964    5.182491   -0.938006
 C          5.502441    5.813917    1.753439
 H          5.544464    3.684901    2.018699
 C          4.938181    6.909667    1.086929
 H          3.509970    7.479902   -0.423744
 H          6.260884    5.982886    2.514457
 C        -17.337124   -1.945889    2.502310
 H        -18.182023   -2.256823    1.873183
 H        -17.561104   -2.260138    3.526888
 H        -17.305322   -0.851158    2.480753
 C         -4.905288   -7.899964   -2.437332
 H         -4.275477   -7.164468   -2.947996
 H         -4.316736   -8.351962   -1.631272
 H         -5.128908   -8.697157   -3.158878
 C          1.171431   -5.389458   -1.596407
 H          2.006251   -6.096443   -1.540799
 H          0.417462   -5.722120   -0.870306
 H          0.722620   -5.468759   -2.591809
 C          5.349855    8.323909    1.419900
 H          6.375777    8.363863    1.800366
 H          5.284942    8.976766    0.543011
 H          4.698805    8.753870    2.192937
 O        -11.118189   -7.592089   -0.337777
 O        -11.100841   -2.228895    0.448928
 O          1.313505    3.323020    0.110048
 O          5.246845   -0.388831   -0.323278
