       146
S0: Total Energy = -10145.0878959
 C        -11.523693   -7.895473   -0.434948
 C        -12.262610   -6.858507    0.033557
 C        -11.534197   -5.614767    0.068911
 C        -10.200463   -5.771609   -0.409595
 S         -9.891410   -7.445399   -0.871490
 H        -13.297023   -6.955699    0.338082
 C        -12.002177   -4.335348    0.455966
 C         -9.294914   -4.709390   -0.535656
 C        -11.098507   -3.275068    0.329903
 C         -9.762751   -3.431029   -0.145130
 C         -9.035384   -2.195986   -0.102357
 C         -9.762704   -1.132647    0.362362
 S        -11.418912   -1.603044    0.783353
 H         -7.995248   -2.113168   -0.393675
 C        -13.365395   -4.110700    0.967519
 C        -14.304799   -3.220305    0.511616
 C        -15.491855   -3.250859    1.293251
 C        -15.502331   -4.128243    2.340019
 S        -13.970833   -4.967823    2.381446
 H        -14.175839   -2.581973   -0.354172
 C         -7.935093   -4.930985   -1.054285
 C         -6.999748   -5.837171   -0.621119
 C         -5.817030   -5.800199   -1.408443
 C         -5.806065   -4.903194   -2.438646
 S         -7.330671   -4.051287   -2.455459
 H         -7.128901   -6.491496    0.232503
 C         -9.344114    0.239249    0.533069
 C        -10.062582    1.299255    1.055714
 C         -9.359943    2.523787    1.063830
 C         -8.079407    2.433453    0.550794
 S         -7.753966    0.776373    0.032543
 H        -11.075490    1.197158    1.430396
 H         -9.767822    3.451037    1.435809
 C         -7.019310    3.420394    0.469734
 C         -7.007318    4.794061    0.231417
 C         -5.674694    5.364074    0.215820
 C         -4.668722    4.425201    0.444838
 S         -5.381630    2.846502    0.705463
 C         -8.209267    5.606009   -0.090718
 O         -9.360066    5.178223    0.025786
 C         -5.440555    6.790566   -0.127582
 O         -4.334713    7.330174   -0.042847
 C         -8.919836    7.833665   -1.033780
 C         -7.944749    6.969646   -0.579438
 C         -6.620731    7.535484   -0.598111
 C         -6.582686    8.832401   -1.067709
 S         -8.190178    9.344944   -1.496800
 C         -3.221790    4.508625    0.502793
 C         -2.392359    5.511163    0.971601
 C         -1.023087    5.168854    0.957424
 C         -0.764019    3.897967    0.476673
 S         -2.258557    3.110148    0.015514
 H         -2.774296    6.458558    1.319090
 H         -0.242919    5.836705    1.306839
 C        -16.603525   -4.378268    3.322866
 H        -16.290227   -4.162870    4.351094
 H        -17.451408   -3.730155    3.084108
 H        -16.950573   -5.417714    3.291727
 C         -4.708650   -4.642824   -3.422785
 H         -5.031110   -4.829270   -4.453802
 H         -3.867304   -5.306917   -3.205596
 H         -4.349349   -3.608254   -3.369202
 C        -10.399667    7.633492   -1.158218
 H        -10.852925    7.485288   -0.172233
 H        -10.878765    8.492117   -1.637441
 H        -10.619507    6.734262   -1.741680
 C         -5.418970    9.761959   -1.232641
 H         -4.634640    9.294670   -1.835896
 H         -5.721870   10.697953   -1.710741
 H         -4.970056    9.994170   -0.261075
 H        -11.837076   -8.924144   -0.557877
 C          0.511468    3.239584    0.320250
 C          0.764331    1.923681    0.032542
 S          2.007199    4.170033    0.509659
 C          2.157096    1.598498   -0.045532
 H         -0.022124    1.189604   -0.094354
 C          2.982007    2.733305    0.212833
 C          2.748025    0.330737   -0.278766
 C          4.378552    2.677770    0.265649
 C          4.144568    0.274982   -0.225665
 C          1.951707   -0.874128   -0.564561
 C          4.969196    1.409977    0.032531
 C          5.175629    3.882301    0.550980
 S          5.120244   -1.161993   -0.521080
 C          1.993970   -2.088049    0.074410
 S          0.821869   -0.931917   -1.914103
 C          6.361758    1.084979   -0.044453
 C          5.132838    5.096727   -0.087149
 S          6.310218    3.938072    1.896679
 C          6.615353   -0.231099   -0.330400
 C          1.114422   -3.033602   -0.519399
 H          2.603559   -2.303032    0.943793
 C          0.398172   -2.596602   -1.597423
 H          7.148033    1.819109    0.082751
 C          6.015885    6.040635    0.504073
 H          4.520858    5.313006   -0.954538
 C          6.735647    5.602141    1.579163
 C          7.893395   -0.885926   -0.481038
 C         -0.596209   -3.361017   -2.414493
 C          7.735610    6.363836    2.392196
 C          8.163041   -2.155555   -0.958832
 S          9.380245   -0.088220   -0.013022
 H         -0.291447   -3.434390   -3.464979
 H         -0.684413   -4.375195   -2.014938
 H         -1.589140   -2.896996   -2.387238
 H          7.437258    6.435081    3.444630
 H          7.822407    7.378973    1.994851
 H          8.727829    5.898985    2.358321
 C          9.535200   -2.488885   -0.965939
 H          7.388980   -2.829105   -1.311018
 C         10.355464   -1.480074   -0.494728
 H          9.925639   -3.434289   -1.309443
 C         11.801371   -1.382230   -0.423555
 C         12.816243   -2.307267   -0.181657
 S         12.497899    0.206116   -0.670304
 C         14.141403   -1.716832   -0.170816
 C         12.597407   -3.738658    0.147866
 C         14.137656   -0.343357   -0.402154
 C         15.349340   -2.513691    0.166035
 O         11.502042   -4.294994    0.036487
 C         13.779550   -4.468498    0.637584
 C         15.182614    0.666391   -0.452585
 O         16.496113   -2.071526    0.067173
 C         15.095262   -3.883051    0.646291
 C         13.751885   -5.767837    1.101068
 C         16.472530    0.607970   -0.940963
 S         14.819790    2.310305    0.084807
 C         16.074008   -4.734254    1.116192
 S         15.358277   -6.258281    1.559355
 C         12.599190   -6.715334    1.239723
 C         17.155318    1.853371   -0.891492
 H         16.904319   -0.305916   -1.319813
 C         16.394772    2.863657   -0.365036
 C         17.548066   -4.512495    1.269714
 H         12.173044   -6.950595    0.258690
 H         12.906606   -7.648505    1.720495
 H         11.796180   -6.262137    1.828994
 H         18.175285    1.990933   -1.233191
 H         17.743015   -3.605231    1.849373
 H         18.028749   -5.360183    1.766506
 H         18.020206   -4.366804    0.292167
 H         16.670265    3.896763   -0.199478
 F          6.135061    7.293302    0.015825
 F          0.995638   -4.286153   -0.031453
 F        -16.545829   -2.459304    1.001791
 F         -4.767241   -6.604604   -1.138549
       146
T1: Total Energy = -10145.0371200
 C          9.879581   -8.321558    0.929445
 C         10.758974   -7.467152    0.347184
 C         10.283563   -6.107190    0.304147
 C          8.993326   -5.984173    0.900216
 S          8.410504   -7.545177    1.474529
 H         11.723062   -7.777464   -0.035408
 C         10.948626   -4.958655   -0.193654
 C          8.323182   -4.764083    1.040612
 C         10.276407   -3.739529   -0.058828
 C          8.984781   -3.619040    0.534704
 C          8.493107   -2.278155    0.475277
 C          9.352526   -1.389351   -0.120569
 S         10.851077   -2.178566   -0.645560
 H          7.518021   -1.991790    0.850468
 C         12.277114   -5.022939   -0.827089
 C         13.402421   -4.306389   -0.505332
 C         14.487522   -4.598825   -1.375868
 C         14.240375   -5.510770   -2.362306
 S         12.582615   -6.045175   -2.227634
 H         13.472898   -3.615304    0.326026
 C          7.001690   -4.681376    1.687279
 C          5.835470   -5.311716    1.334184
 C          4.772787   -4.999629    2.226345
 C          5.077703   -4.160267    3.260038
 S          6.763317   -3.719026    3.142472
 H          5.722364   -5.952753    0.468123
 C          9.140867    0.014525   -0.354122
 C          9.989449    0.948807   -0.932001
 C          9.451740    2.245258   -1.013117
 C          8.159252    2.355406   -0.502490
 S          7.634920    0.774556    0.110284
 H         10.980806    0.697954   -1.294516
 H          9.967874    3.089333   -1.441003
 C          7.206442    3.430969   -0.465937
 C          7.292634    4.839281   -0.442244
 C          6.030068    5.502983   -0.293299
 C          4.912641    4.600874   -0.263249
 S          5.521129    2.940953   -0.384596
 C          8.574274    5.594854   -0.503487
 O          9.659045    5.049313   -0.722665
 C          5.945832    6.959899   -0.078635
 O          4.879075    7.554336    0.134017
 C          9.561630    7.903237   -0.285904
 C          8.480723    7.044820   -0.297872
 C          7.217983    7.700550   -0.098037
 C          7.328599    9.065426    0.068741
 S          9.006661    9.531059   -0.022322
 C          3.515327    4.733967   -0.198906
 C          2.641340    5.860791   -0.300615
 C          1.303040    5.549470   -0.257614
 C          1.014080    4.164649   -0.124057
 S          2.529396    3.252394   -0.029012
 H          3.038396    6.858270   -0.399938
 H          0.517934    6.294531   -0.334644
 C         15.182468   -6.011824   -3.412365
 H         14.824110   -5.786830   -4.423658
 H         16.154793   -5.528600   -3.281987
 H         15.329533   -7.096088   -3.345056
 C          4.175525   -3.665952    4.347893
 H          4.543656   -3.947743    5.341144
 H          3.181854   -4.103918    4.218963
 H          4.072562   -2.574678    4.329058
 C         11.021214    7.613458   -0.459288
 H         11.212974    7.174081   -1.443898
 H         11.622445    8.521419   -0.357283
 H         11.359520    6.881362    0.280835
 C          6.268605   10.099497    0.299312
 H          5.731187    9.901319    1.232443
 H          6.697537   11.104631    0.348772
 H          5.523531   10.073154   -0.501953
 H         10.000083   -9.386418    1.081027
 C         -0.224583    3.519825   -0.066641
 C         -0.467263    2.135235   -0.014324
 S         -1.752938    4.428687   -0.053322
 C         -1.826750    1.780782    0.041900
 H          0.337787    1.412397   -0.052451
 C         -2.689850    2.930416    0.012511
 C         -2.393601    0.464766    0.058005
 C         -4.074610    2.851018   -0.015315
 C         -3.786365    0.390744    0.033272
 C         -1.565665   -0.747513    0.086743
 C         -4.640931    1.536280    0.007912
 C         -4.908785    4.062213   -0.064139
 S         -4.732324   -1.095951    0.103050
 C         -1.659415   -1.851428   -0.726538
 S         -0.305912   -0.990816    1.297214
 C         -6.012307    1.180792    0.071479
 C         -4.872980    5.148707    0.774015
 S         -6.088212    4.318650   -1.347697
 C         -6.245902   -0.179929    0.126615
 C         -0.719661   -2.856306   -0.375180
 H         -2.342981   -1.941523   -1.562042
 C          0.096842   -2.575931    0.684319
 H         -6.812643    1.910186    0.101010
 C         -5.794792    6.156207    0.380383
 H         -4.238781    5.228173    1.648730
 C         -6.538891    5.890665   -0.734102
 C         -7.504351   -0.863859    0.197764
 C          1.177093   -3.431933    1.267825
 C         -7.580575    6.754351   -1.374435
 C         -7.745969   -2.220637    0.366634
 S         -9.022474    0.001694    0.043869
 H          0.966624   -3.703024    2.308984
 H          1.261257   -4.356171    0.690670
 H          2.151297   -2.930812    1.245977
 H         -7.316231    7.016508   -2.405503
 H         -7.678288    7.681690   -0.803132
 H         -8.560320    6.263106   -1.396681
 C         -9.110209   -2.565113    0.383804
 H         -6.950851   -2.948787    0.486614
 C         -9.963906   -1.482529    0.231586
 H         -9.478088   -3.571556    0.508412
 C        -11.407818   -1.393350    0.285157
 C        -12.441989   -2.261016   -0.073780
 S        -12.083015    0.098337    0.912021
 C        -13.762268   -1.700250    0.139730
 C        -12.253045   -3.583038   -0.721247
 C        -13.738900   -0.405519    0.653964
 C        -14.994989   -2.426260   -0.262562
 O        -11.151848   -4.130199   -0.826653
 C        -13.471809   -4.213068   -1.256897
 C        -14.773928    0.558436    0.989440
 O        -16.129260   -2.032116    0.017690
 C        -14.783064   -3.659847   -1.038621
 C        -13.483179   -5.386350   -1.983111
 C        -16.026349    0.385401    1.544514
 S        -14.443642    2.282655    0.783905
 C        -15.797697   -4.409069   -1.597696
 S        -15.121944   -5.795167   -2.405837
 C        -12.346684   -6.266206   -2.407176
 C        -16.705595    1.606035    1.804977
 H        -16.433667   -0.592095    1.753240
 C        -15.980269    2.712323    1.449220
 C        -17.278890   -4.182354   -1.584900
 H        -11.833454   -6.680732   -1.533157
 H        -12.695131   -7.092559   -3.033376
 H        -11.600353   -5.691257   -2.964070
 H        -17.698088    1.658033    2.238867
 H        -17.519331   -3.183544   -1.961786
 H        -17.800842   -4.925321   -2.194762
 H        -17.667706   -4.232725   -0.562345
 H        -16.262881    3.754097    1.523036
 F         -5.926102    7.301539    1.082021
 F         -0.637819   -4.013163   -1.064569
 F         15.691792   -4.009215   -1.220506
 F          3.529575   -5.499381    2.043472
       146
S1: Total Energy = -10145.0189777
 C          9.814147   -8.353235    0.846702
 C         10.707780   -7.493331    0.292611
 C         10.240786   -6.131669    0.264539
 C          8.941572   -6.010500    0.841524
 S          8.341871   -7.578014    1.381383
 H         11.676410   -7.802793   -0.079010
 C         10.923054   -4.977568   -0.201088
 C          8.277064   -4.788928    0.994071
 C         10.257849   -3.757698   -0.055873
 C          8.954555   -3.637846    0.516265
 C          8.472031   -2.297378    0.467803
 C          9.349827   -1.399607   -0.097027
 S         10.853984   -2.190465   -0.604620
 H          7.491862   -2.009976    0.828328
 C         12.261920   -5.040877   -0.811918
 C         13.386202   -4.337553   -0.458694
 C         14.484146   -4.622565   -1.315410
 C         14.248017   -5.515960   -2.321394
 S         12.584838   -6.041445   -2.224219
 H         13.446874   -3.661167    0.385432
 C          6.949802   -4.708300    1.625499
 C          5.791609   -5.352978    1.269615
 C          4.719550   -5.042581    2.150336
 C          5.008989   -4.191526    3.179301
 S          6.690658   -3.735035    3.070749
 H          5.690494   -6.002007    0.408074
 C          9.150106    0.003838   -0.307529
 C         10.029248    0.953229   -0.819637
 C          9.500595    2.250234   -0.893795
 C          8.181465    2.352514   -0.446033
 S          7.622015    0.758688    0.098235
 H         11.037680    0.707884   -1.136117
 H         10.040586    3.104104   -1.270114
 C          7.235339    3.431163   -0.433958
 C          7.326495    4.836161   -0.370834
 C          6.054602    5.504468   -0.304172
 C          4.944089    4.614616   -0.340493
 S          5.543158    2.958763   -0.473870
 C          8.611452    5.579907   -0.294170
 O          9.709764    5.028956   -0.412538
 C          5.963379    6.968824   -0.126918
 O          4.888529    7.582240   -0.074659
 C          9.589343    7.872973    0.077704
 C          8.508831    7.026981   -0.066758
 C          7.237699    7.693016    0.008140
 C          7.342265    9.054100    0.210192
 S          9.024076    9.502788    0.311819
 C          3.528786    4.752638   -0.300909
 C          2.667474    5.859358   -0.448099
 C          1.315140    5.542373   -0.406297
 C          1.038746    4.176032   -0.232630
 S          2.548059    3.280915   -0.089372
 H          3.059391    6.854395   -0.584537
 H          0.530648    6.283705   -0.517523
 C         15.204557   -6.005231   -3.363916
 H         14.864246   -5.761372   -4.377067
 H         16.177318   -5.530051   -3.209486
 H         15.344280   -7.091320   -3.312214
 C          4.094264   -3.696432    4.256155
 H          4.462160   -3.959141    5.254677
 H          3.108008   -4.151181    4.128829
 H          3.975044   -2.607155    4.222118
 C         11.056616    7.570931    0.056925
 H         11.349679    7.146803   -0.909196
 H         11.651027    8.470651    0.240064
 H         11.307006    6.822320    0.815313
 C          6.272722   10.095444    0.341792
 H          5.607849    9.862706    1.179824
 H          6.702189   11.089202    0.499187
 H          5.646251   10.120689   -0.555595
 H          9.926753   -9.421152    0.981893
 C         -0.209377    3.518000   -0.168582
 C         -0.450187    2.143403   -0.114517
 S         -1.729136    4.430814   -0.154641
 C         -1.810244    1.788602   -0.057595
 H          0.353950    1.419279   -0.152857
 C         -2.672137    2.938636   -0.087912
 C         -2.379448    0.470075   -0.046724
 C         -4.057730    2.862808   -0.121363
 C         -3.768129    0.397335   -0.077310
 C         -1.551988   -0.741329   -0.018111
 C         -4.626290    1.546246   -0.100910
 C         -4.888667    4.073294   -0.173717
 S         -4.716071   -1.090833   -0.012049
 C         -1.652186   -1.849508   -0.825736
 S         -0.286975   -0.982316    1.188272
 C         -5.990902    1.193569   -0.035196
 C         -4.823055    5.180394    0.636841
 S         -6.103775    4.307297   -1.429348
 C         -6.231011   -0.174613    0.015003
 C         -0.714669   -2.855185   -0.473147
 H         -2.338404   -1.941316   -1.658847
 C          0.107027   -2.571950    0.582140
 H         -6.791721    1.921843    0.001783
 C         -5.749612    6.183347    0.245806
 H         -4.166562    5.276079    1.493217
 C         -6.526523    5.896012   -0.841169
 C         -7.483229   -0.844786    0.082359
 C          1.183804   -3.430519    1.167697
 C         -7.580645    6.751116   -1.472243
 C         -7.736346   -2.212557    0.210032
 S         -9.002657    0.035567   -0.015413
 H          0.969009   -3.702361    2.207819
 H          1.268075   -4.354405    0.590048
 H          2.158879   -2.930874    1.150037
 H         -7.343403    6.987578   -2.516028
 H         -7.657400    7.691943   -0.920197
 H         -8.563114    6.265157   -1.456110
 C         -9.093359   -2.547457    0.241755
 H         -6.943365   -2.948523    0.290407
 C         -9.953280   -1.451031    0.142938
 H         -9.468389   -3.553851    0.339210
 C        -11.384417   -1.355149    0.230449
 C        -12.443246   -2.240767   -0.038929
 S        -12.036038    0.179988    0.788398
 C        -13.747966   -1.660608    0.199147
 C        -12.290972   -3.590386   -0.626795
 C        -13.701876   -0.333426    0.629891
 C        -15.002222   -2.404711   -0.090910
 O        -11.193799   -4.138290   -0.790034
 C        -13.536822   -4.258198   -1.039134
 C        -14.716199    0.656235    0.943018
 O        -16.119476   -1.983267    0.218138
 C        -14.834900   -3.690918   -0.784719
 C        -13.587686   -5.479453   -1.680469
 C        -15.957012    0.532309    1.540214
 S        -14.369014    2.364728    0.639707
 C        -15.879039   -4.475802   -1.229620
 S        -15.247933   -5.916394   -1.975018
 C        -12.476933   -6.388210   -2.111963
 C        -16.611487    1.774135    1.753853
 H        -16.370887   -0.426377    1.812144
 C        -15.881105    2.850086    1.321367
 C        -17.357405   -4.245552   -1.147593
 H        -11.898508   -6.728256   -1.246710
 H        -12.862664   -7.264040   -2.641915
 H        -11.777542   -5.859218   -2.766859
 H        -17.590912    1.863514    2.210744
 H        -17.621191   -3.275506   -1.580046
 H        -17.912163   -5.028914   -1.672042
 H        -17.687002   -4.222373   -0.103372
 H        -16.148241    3.898247    1.347899
 F         -5.855497    7.345220    0.923296
 F         -0.638721   -4.015631   -1.156509
 F         15.689323   -4.043958   -1.129496
 F          3.482100   -5.553829    1.961898
