       158
S0: Total Energy = -11645.7821134
 C        -19.810864   -3.950779   -0.368495
 C        -19.647885   -2.654151   -0.829445
 C        -18.307696   -2.146737   -0.715501
 C        -17.452207   -3.140506   -0.148275
 S        -18.312469   -4.644703    0.231077
 C        -17.787479   -0.876999   -1.048700
 C        -16.096114   -2.924093    0.110140
 C        -16.431510   -0.660516   -0.792409
 C        -15.575523   -1.654142   -0.224863
 C        -14.237312   -1.146964   -0.114233
 C        -14.074819    0.151233   -0.577026
 S        -15.574462    0.844758   -1.174220
 C        -18.637964    0.174606   -1.646892
 C        -19.083903    0.277130   -2.940151
 C        -19.895843    1.427700   -3.173658
 C        -20.077598    2.210626   -2.064181
 S        -19.234553    1.527251   -0.693738
 H        -18.831719   -0.450140   -3.704626
 H        -20.330356    1.669701   -4.138378
 C        -15.244763   -3.972145    0.711890
 C        -14.766741   -4.047715    1.995844
 C        -13.964250   -5.202889    2.238450
 C        -13.821428   -6.016432    1.145358
 S        -14.690197   -5.356921   -0.220697
 H        -14.991000   -3.298729    2.747922
 H        -13.508992   -5.426295    3.198070
 C        -10.463348   -0.161658    0.266081
 C         -9.553707   -1.159242    0.577405
 C         -8.245369   -0.676196    0.742073
 C         -8.105601    0.698564    0.564814
 S         -9.684773    1.405602    0.219314
 H         -9.820071   -2.206079    0.676304
 H         -7.413406   -1.324777    0.992861
 C         -6.832247    1.388487    0.585731
 C         -6.417522    2.718625    0.668061
 C         -4.977004    2.881194    0.712670
 C         -4.272001    1.677770    0.664209
 S         -5.414769    0.352575    0.497758
 C         -7.327682    3.876629    0.739336
 O         -8.553145    3.763593    0.617578
 C         -4.353673    4.212030    0.833560
 O         -3.128619    4.375326    0.789708
 C         -7.393300    6.369167    1.124707
 C         -6.699851    5.187831    0.960884
 C         -5.269953    5.348855    1.006790
 C         -4.867666    6.653324    1.206223
 S         -6.267625    7.679043    1.344901
 C         -2.877676    1.289526    0.723595
 C         -2.445432   -0.020394    0.919184
 C         -1.055059   -0.198578    0.833112
 C         -0.374653    0.978366    0.566047
 S         -1.478905    2.332856    0.463740
 H         -3.124972   -0.839446    1.126766
 H         -0.567888   -1.160121    0.954600
 C        -20.862534    3.483097   -1.940157
 H        -20.231174    4.324259   -1.629928
 H        -21.308834    3.735693   -2.906897
 H        -21.673368    3.393826   -1.207336
 C        -13.057311   -7.302751    1.034734
 H        -13.708332   -8.142822    0.764836
 H        -12.588019   -7.535691    1.995503
 H        -12.265978   -7.244973    0.277822
 C         -8.869878    6.624673    1.130464
 H         -9.368188    5.989374    1.869084
 H         -9.091805    7.671458    1.357335
 H         -9.307971    6.376731    0.157833
 C         -3.487567    7.229041    1.303923
 H         -2.947152    7.097888    0.360362
 H         -3.516921    8.295605    1.544627
 H         -2.906741    6.708645    2.071493
 S        -21.166185   -2.014598   -1.406753
 C        -21.140882   -4.448543   -0.466215
 H        -21.459498   -5.437226   -0.157519
 C        -21.976982   -3.508696   -1.004629
 H        -23.037376   -3.603079   -1.198896
 S        -12.721826   -1.791881    0.457243
 C        -12.752012    0.644809   -0.498328
 H        -12.441022    1.628366   -0.831350
 C        -11.883186   -0.289260    0.034473
 C          1.048628    1.171722    0.416216
 S          2.175610   -0.102920    0.910713
 C          1.715862    2.274765   -0.083597
 C          3.539211    0.862582    0.412736
 C          3.117563    2.089652   -0.080654
 H          1.212550    3.161751   -0.450863
 C          4.960014    0.667179    0.383752
 S          4.456025    3.098376   -0.606696
 C          5.604478    1.824741   -0.153459
 C          5.729753   -0.454536    0.767015
 C          6.986193    1.913946   -0.335155
 C          7.111431   -0.365477    0.584953
 C          5.099776   -1.662488    1.340818
 C          7.755870    0.791895    0.047180
 C          7.615892    3.122313   -0.908485
 S          8.259808   -1.639837    1.036265
 C          4.578131   -1.834696    2.598280
 S          4.921345   -3.141765    0.405712
 C          9.176431    0.595061    0.014744
 C          8.133541    3.296862   -2.167251
 S          7.798861    4.599259    0.029406
 C          9.597898   -0.632697    0.506420
 C          4.040439   -3.138297    2.818660
 H          4.586955   -1.049993    3.347328
 C          4.144982   -3.969988    1.734887
 S         10.539841    1.557494   -0.490058
 C          8.671864    4.600430   -2.386403
 H          8.121508    2.513870   -2.918042
 C          8.571694    5.429766   -1.300425
 C         10.999260   -0.820901    0.502524
 H          3.592420   -3.451747    3.756229
 C          3.694702   -5.395314    1.607077
 C         11.666304    0.280312   -0.001259
 H          9.117206    4.915537   -3.324692
 C          9.023884    6.854328   -1.170837
 H         11.502552   -1.708997    0.867111
 H          4.531442   -6.070043    1.390352
 H          3.233568   -5.721078    2.544513
 H          2.956380   -5.520875    0.806141
 C         13.089270    0.468398   -0.162289
 H          8.188590    7.529426   -0.949728
 H          9.482196    7.181787   -2.109065
 H          9.765045    6.977263   -0.372119
 C         13.773436    1.643610   -0.426048
 S         14.186647   -0.893367   -0.085372
 C         15.161958    1.457922   -0.530244
 H         13.290569    2.609079   -0.532801
 C         15.588266    0.143893   -0.352208
 H         15.844069    2.274823   -0.737912
 C         16.981131   -0.254586   -0.314482
 C         17.676304   -1.462544   -0.383354
 S         18.136716    1.059787   -0.152838
 C         19.119163   -1.309967   -0.354686
 C         17.043379   -2.787518   -0.515922
 C         19.542166    0.014808   -0.271756
 C         20.021858   -2.475006   -0.441327
 O         15.818138   -2.944831   -0.458129
 C         17.950489   -3.926812   -0.721591
 C         20.823516    0.700449   -0.274823
 O         21.246504   -2.374584   -0.310381
 C         19.381990   -3.776932   -0.686060
 C         17.536975   -5.224425   -0.941670
 C         20.973521    2.060393   -0.523584
 S         22.389404    0.007595    0.144494
 C         20.065192   -4.959809   -0.877958
 S         18.928119   -6.257212   -1.113552
 C         16.151941   -5.788821   -1.036372
 C         22.294477    2.539768   -0.365013
 H         20.150304    2.695811   -0.831238
 C         23.161372    1.545685    0.011914
 C         21.539883   -5.225295   -0.899657
 H         15.566934   -5.249933   -1.787874
 H         16.171541   -6.850715   -1.297909
 H         15.622045   -5.672250   -0.084968
 H         22.586922    3.570011   -0.534632
 H         24.227881    1.623465    0.182032
 H         21.985249   -5.005590    0.076453
 H         21.753201   -6.267321   -1.154982
 H         22.038275   -4.574358   -1.624451
       158
T1: Total Energy = -11645.7324579
 C         19.798861   -4.013867   -0.251259
 C         19.711354   -2.641059   -0.079213
 C         18.369559   -2.128175   -0.067608
 C         17.433186   -3.195400   -0.230296
 S         18.222828   -4.774720   -0.400661
 C         17.908368   -0.798075    0.051560
 C         16.051464   -2.997591   -0.286619
 C         16.527747   -0.599547   -0.001884
 C         15.589955   -1.666679   -0.164325
 C         14.251894   -1.153956   -0.146028
 C         14.165454    0.223730    0.028940
 S         15.743533    0.982485    0.170733
 C         18.844988    0.332565    0.229248
 C         19.512477    0.716653    1.364543
 C         20.345757    1.860251    1.176291
 C         20.322894    2.357018   -0.100317
 S         19.254484    1.404557   -1.103780
 H         19.404582    0.196303    2.310347
 H         20.943008    2.304010    1.966497
 C         15.113494   -4.124817   -0.471354
 C         14.405511   -4.467569   -1.595804
 C         13.583936   -5.621669   -1.422342
 C         13.655482   -6.167820   -0.167808
 S         14.756612   -5.250352    0.832728
 H         14.478435   -3.911597   -2.524497
 H         12.960515   -6.037707   -2.207385
 C         10.473821   -0.146105   -0.076121
 C          9.523484   -1.159465   -0.194791
 C          8.213545   -0.689787   -0.157468
 C          8.082768    0.705778   -0.008068
 S          9.702142    1.423369    0.082187
 H          9.776866   -2.208864   -0.301765
 H          7.359915   -1.352843   -0.235418
 C          6.822747    1.370638    0.056477
 C          6.389915    2.712892    0.203193
 C          4.975059    2.884288    0.218115
 C          4.236580    1.661506    0.077889
 S          5.401614    0.318659   -0.067180
 C          7.308977    3.865926    0.331185
 O          8.537660    3.730830    0.313391
 C          4.356576    4.206532    0.367633
 O          3.126247    4.366352    0.384764
 C          7.391008    6.370981    0.616218
 C          6.692836    5.188441    0.480893
 C          5.265870    5.353603    0.499435
 C          4.864799    6.663925    0.650018
 S          6.268451    7.692794    0.767819
 C          2.882202    1.302660    0.029291
 C          2.434790   -0.053832   -0.124804
 C          1.072809   -0.221994   -0.158493
 C          0.347413    0.985701   -0.033303
 S          1.456836    2.364768    0.133462
 H          3.126280   -0.883886   -0.207802
 H          0.593325   -1.189162   -0.269185
 C         21.065135    3.537048   -0.654666
 H         20.383189    4.305558   -1.037735
 H         21.675639    3.990471    0.132229
 H         21.732222    3.251206   -1.476665
 C         12.938348   -7.372413    0.366381
 H         13.636755   -8.152616    0.691786
 H         12.299526   -7.796552   -0.414344
 H         12.302540   -7.122950    1.224222
 C          8.868626    6.616468    0.645497
 H          9.337293    6.259726   -0.277433
 H          9.093482    7.680078    0.765946
 H          9.335077    6.062915    1.467010
 C          3.485867    7.246935    0.716569
 H          2.917449    6.798633    1.537529
 H          3.518046    8.330823    0.860652
 H          2.930439    7.031082   -0.202005
 S         21.303652   -1.938786    0.059156
 C         21.128391   -4.520876   -0.277535
 H         21.394230   -5.564001   -0.401831
 C         22.040166   -3.511805   -0.125267
 H         23.118893   -3.595535   -0.104327
 S         12.664380   -1.862403   -0.270568
 C         12.851832    0.731530    0.071064
 H         12.600030    1.777408    0.203308
 C         11.901319   -0.270872   -0.071221
 C         -1.045033    1.164457   -0.031063
 S         -2.150604   -0.228596   -0.222602
 C         -1.767148    2.366865    0.100966
 C         -3.542101    0.822518   -0.110342
 C         -3.145410    2.158853    0.057096
 H         -1.288970    3.331118    0.225825
 C         -4.950492    0.622139   -0.130407
 S         -4.519093    3.246800    0.186156
 C         -5.634422    1.874024    0.022667
 C         -5.698952   -0.578966   -0.244709
 C         -7.019811    1.986207    0.077292
 C         -7.087770   -0.465069   -0.186794
 C         -5.034038   -1.885096   -0.426513
 C         -7.767029    0.785213   -0.034216
 C         -7.686576    3.294402    0.248677
 S         -8.207432   -1.832192   -0.352501
 C         -4.385069   -2.361373   -1.538406
 S         -4.982524   -3.083517    0.860993
 C         -9.181372    0.584991   -0.051627
 C         -8.288085    3.803221    1.372253
 S         -7.804589    4.447832   -1.074165
 C         -9.574844   -0.739802   -0.217983
 C         -3.851926   -3.673996   -1.368837
 H         -4.301851   -1.789482   -2.456437
 C         -4.085942   -4.210130   -0.129741
 S        -10.573231    1.629751    0.068601
 C         -8.838585    5.106356    1.183163
 H         -8.327367    3.260868    2.310993
 C         -8.664328    5.601973   -0.082304
 C        -10.970581   -0.939362   -0.262000
 H         -3.314088   -4.207946   -2.145751
 C         -3.677269   -5.554340    0.396123
 C        -11.668921    0.249353   -0.128364
 H         -9.345609    5.662698    1.965113
 C         -9.104728    6.926025   -0.633206
 H        -11.450487   -1.901637   -0.398595
 H         -4.543751   -6.158273    0.690672
 H         -3.132262   -6.102315   -0.378597
 H         -3.023739   -5.469148    1.272490
 C        -13.095903    0.451628   -0.130536
 H         -8.255841    7.525355   -0.983192
 H         -9.620471    7.495460    0.146040
 H         -9.793892    6.808889   -1.478023
 C        -13.791127    1.651554   -0.140715
 S        -14.196941   -0.909860   -0.071974
 C        -15.183526    1.478791   -0.131534
 H        -13.311515    2.624381   -0.156702
 C        -15.606200    0.150535   -0.113830
 H        -15.873001    2.315589   -0.130306
 C        -16.993669   -0.255073   -0.198961
 C        -17.702751   -1.439874    0.007905
 S        -18.122146    1.010447   -0.664145
 C        -19.136820   -1.300829   -0.162868
 C        -17.094515   -2.722889    0.404035
 C        -19.540796   -0.009174   -0.493851
 C        -20.053728   -2.440464    0.037952
 O        -15.869814   -2.882914    0.469901
 C        -18.025339   -3.816525    0.721367
 C        -20.812439    0.660876   -0.707135
 O        -21.262176   -2.369306   -0.210086
 C        -19.447911   -3.680681    0.546447
 C        -17.643095   -5.057687    1.186866
 C        -20.971816    2.042353   -0.693366
 S        -22.343530   -0.099010   -1.138835
 C        -20.155514   -4.817653    0.877049
 S        -19.053256   -6.052884    1.416416
 C        -16.275716   -5.593206    1.485496
 C        -22.271166    2.482627   -1.036220
 H        -20.172022    2.723515   -0.424250
 C        -23.111527    1.436045   -1.319719
 C        -21.629834   -5.080772    0.824365
 H        -15.747442   -4.934447    2.181476
 H        -16.326874   -6.596671    1.917770
 H        -15.670239   -5.635269    0.573826
 H        -22.568650    3.525061   -1.058961
 H        -24.159562    1.479452   -1.588367
 H        -21.993772   -5.030247   -0.207329
 H        -21.873635   -6.065493    1.233393
 H        -22.177643   -4.318397    1.386682
       158
S1: Total Energy = -11645.7151994
 C         19.816590   -3.991981   -0.071081
 C         19.721524   -2.610746    0.018841
 C         18.378407   -2.105980    0.003432
 C         17.446508   -3.185697   -0.092803
 S         18.244937   -4.768543   -0.170168
 C         17.910358   -0.771918    0.042334
 C         16.064232   -2.998926   -0.160703
 C         16.530259   -0.583746   -0.021665
 C         15.595204   -1.663443   -0.118016
 C         14.257700   -1.157962   -0.124904
 C         14.164505    0.230373   -0.031043
 S         15.739211    1.002721    0.058345
 C         18.842342    0.371041    0.151237
 C         19.514923    0.819874    1.259548
 C         20.341426    1.955083    1.003470
 C         20.308514    2.380753   -0.298382
 S         19.238831    1.369725   -1.241294
 H         19.414990    0.352154    2.233303
 H         20.941168    2.444539    1.764216
 C         15.131678   -4.138616   -0.278282
 C         14.402327   -4.531995   -1.372410
 C         13.593602   -5.683444   -1.134521
 C         13.695560   -6.177185    0.139571
 S         14.810266   -5.212199    1.078203
 H         14.452199   -4.014890   -2.324752
 H         12.957352   -6.135900   -1.888488
 C         10.477608   -0.160106   -0.091281
 C          9.528497   -1.180671   -0.155230
 C          8.217172   -0.713547   -0.131993
 C          8.083875    0.685869   -0.048612
 S          9.699467    1.413014   -0.000601
 H          9.784386   -2.233390   -0.213413
 H          7.365032   -1.382138   -0.171179
 C          6.822360    1.356996   -0.012671
 C          6.389996    2.697986    0.084709
 C          4.964869    2.862276    0.091446
 C          4.241605    1.646378   -0.003466
 S          5.400316    0.306519   -0.103746
 C          7.300613    3.855256    0.174818
 O          8.531696    3.729567    0.162265
 C          4.341472    4.189277    0.190653
 O          3.111367    4.347569    0.192558
 C          7.369395    6.368779    0.380721
 C          6.676637    5.180172    0.281103
 C          5.248380    5.341137    0.289623
 C          4.842399    6.654829    0.397353
 S          6.241288    7.691802    0.487005
 C          2.870011    1.272956   -0.034471
 C          2.428601   -0.068711   -0.133484
 C          1.053665   -0.236882   -0.150513
 C          0.343551    0.970046   -0.064658
 S          1.453796    2.339159    0.038094
 H          3.114711   -0.905760   -0.190221
 H          0.572769   -1.207032   -0.220437
 C         21.041951    3.531752   -0.921162
 H         20.354280    4.273075   -1.345311
 H         21.651646    4.032758   -0.163007
 H         21.708671    3.203572   -1.727509
 C         12.998563   -7.363269    0.737833
 H         13.709302   -8.124793    1.080345
 H         12.346757   -7.823283   -0.011192
 H         12.378911   -7.082601    1.597852
 C          8.845974    6.622058    0.407598
 H          9.321494    6.227372   -0.495978
 H          9.065337    7.691023    0.483212
 H          9.310414    6.107344    1.255191
 C          3.461359    7.234879    0.441663
 H          2.891533    6.809606    1.273866
 H          3.489684    8.322725    0.553363
 H          2.909636    6.989791   -0.471768
 S         21.310672   -1.892667    0.109235
 C         21.148412   -4.491865   -0.071310
 H         21.420122   -5.538988   -0.133821
 C         22.055046   -3.470155    0.016943
 H         23.134268   -3.546895    0.039078
 S         12.671681   -1.878815   -0.197375
 C         12.851974    0.734180   -0.011283
 H         12.596371    1.785006    0.059897
 C         11.901995   -0.279571   -0.088158
 C         -1.058760    1.158610   -0.053977
 S         -2.163844   -0.235663   -0.188954
 C         -1.771950    2.362174    0.047432
 C         -3.555593    0.816999   -0.094941
 C         -3.151900    2.159426    0.026427
 H         -1.290150    3.328674    0.137417
 C         -4.956938    0.620406   -0.089768
 S         -4.518575    3.254062    0.141330
 C         -5.640298    1.879631    0.037748
 C         -5.713161   -0.587392   -0.154528
 C         -7.020442    1.996733    0.117933
 C         -7.095123   -0.468801   -0.071267
 C         -5.050792   -1.896737   -0.312347
 C         -7.775187    0.789532    0.057032
 C         -7.683419    3.308682    0.265336
 S         -8.220974   -1.839962   -0.176065
 C         -4.393306   -2.389241   -1.412663
 S         -5.010501   -3.077987    0.991915
 C         -9.179819    0.594251    0.068026
 C         -8.293497    3.834253    1.376957
 S         -7.786328    4.445283   -1.073615
 C         -9.583805   -0.742609   -0.053267
 C         -3.864496   -3.700243   -1.221443
 H         -4.302923   -1.830789   -2.338254
 C         -4.108996   -4.219332    0.023095
 S        -10.568848    1.647387    0.175634
 C         -8.837220    5.136585    1.166151
 H         -8.341817    3.305153    2.322791
 C         -8.650234    5.615027   -0.104257
 C        -10.970754   -0.940085   -0.065170
 H         -3.322501   -4.245877   -1.987239
 C         -3.707058   -5.557110    0.569991
 C        -11.673114    0.259331    0.045517
 H         -9.348211    5.705214    1.936561
 C         -9.081235    6.933165   -0.676300
 H        -11.455030   -1.905618   -0.154173
 H         -4.577035   -6.155111    0.866293
 H         -3.157522   -6.116604   -0.193180
 H         -3.059798   -5.461345    1.449898
 C        -13.087304    0.456543    0.065265
 H         -8.227130    7.525229   -1.025916
 H         -9.602603    7.514167    0.090532
 H         -9.762714    6.807019   -1.525999
 C        -13.787269    1.657520    0.173808
 S        -14.195364   -0.905371   -0.023459
 C        -15.172028    1.487329    0.169567
 H        -13.306472    2.626236    0.259473
 C        -15.604339    0.158386    0.056846
 H        -15.858217    2.322142    0.256821
 C        -16.988365   -0.226805   -0.032118
 C        -17.697936   -1.437355   -0.024979
 S        -18.136749    1.101393   -0.195131
 C        -19.134312   -1.272676   -0.115996
 C        -17.082846   -2.766700    0.102324
 C        -19.549438    0.058014   -0.175653
 C        -20.048109   -2.433089   -0.120892
 O        -15.854895   -2.931112    0.134646
 C        -18.003305   -3.909417    0.197345
 C        -20.825359    0.748951   -0.207336
 O        -21.264933   -2.315678   -0.303636
 C        -19.429876   -3.749449    0.092077
 C        -17.608333   -5.218987    0.378719
 C        -20.976266    2.106784    0.059518
 S        -22.383549    0.073592   -0.685891
 C        -20.128276   -4.935068    0.191293
 S        -19.011601   -6.250000    0.424617
 C        -16.233581   -5.797385    0.525266
 C        -22.288234    2.596759   -0.130003
 H        -20.159742    2.732124    0.403263
 C        -23.149608    1.614077   -0.548776
 C        -21.603427   -5.189589    0.123790
 H        -15.695731   -5.308779    1.343440
 H        -16.272733   -6.873030    0.720283
 H        -15.643937   -5.627218   -0.381791
 H        -22.579421    3.626049    0.047528
 H        -24.209894    1.702103   -0.750168
 H        -21.997478   -4.915977   -0.860728
 H        -21.835110   -6.241704    0.313204
 H        -22.134846   -4.573110    0.855323
