       124
S0: Total Energy = -5375.65733033
 C        -15.438932    2.738705   -0.146765
 C        -13.639755    1.333499   -0.154240
 C        -12.336363    0.878410   -0.239084
 C        -12.099876   -0.513666   -0.233598
 C        -13.207245   -1.383648   -0.153319
 C        -14.512961   -0.909170   -0.070995
 C        -14.764421    0.471793   -0.054127
 C        -15.963997    1.312801   -0.050783
 H        -11.514337    1.579562   -0.338431
 H        -13.041867   -2.455447   -0.125647
 H        -15.333596   -1.605330    0.007390
 O        -16.050902    3.799646   -0.136910
 N        -14.059733    2.659908   -0.187325
 C        -13.193385    3.819680   -0.252282
 H        -12.522462    3.850473    0.613184
 H        -12.593508    3.806257   -1.169173
 H        -13.830394    4.704498   -0.248799
 C        -17.304522    1.010001    0.051951
 C        -17.812707   -0.350456    0.501676
 C        -18.516527    1.812548   -0.167614
 O        -17.184209   -1.348066    0.838564
 N        -19.190954   -0.274819    0.537579
 C        -19.629790    0.981352    0.125273
 C        -18.776359    3.101160   -0.656501
 C        -20.042849   -1.372773    0.947011
 C        -20.945665    1.399268   -0.019034
 C        -20.097069    3.532269   -0.812751
 H        -17.957051    3.761576   -0.894538
 H        -20.650562   -1.089069    1.813323
 H        -20.706982   -1.675483    0.129584
 H        -19.395347   -2.207593    1.216491
 C        -21.169655    2.697852   -0.490790
 H        -21.773736    0.739516    0.218884
 H        -20.285717    4.534718   -1.185550
 H        -22.189743    3.052511   -0.610111
 C        -10.744533   -1.049383   -0.313694
 C        -10.339010   -2.315762   -0.678948
 S         -9.342309   -0.075231    0.080807
 C         -8.934570   -2.529172   -0.671268
 H        -11.035641   -3.087420   -0.988678
 C         -8.233408   -1.390087   -0.288834
 C         -6.813455   -1.146150   -0.163408
 C         -6.166632    0.078120   -0.123881
 S         -5.641075   -2.440075    0.048916
 C         -4.773138   -0.012322    0.072297
 H         -6.689897    1.021325   -0.238146
 C         -4.300824   -1.309419    0.188045
 H         -4.124787    0.855167    0.132172
 C         -2.927743   -1.739030    0.334496
 C         -2.389492   -2.938302    0.789956
 S         -1.648772   -0.615823   -0.110590
 C         -0.969119   -2.921284    0.791421
 C         -0.393240   -1.748358    0.350314
 H         -0.385111   -3.761368    1.151824
 C         -8.323500   -3.848320   -1.067511
 H         -7.484430   -3.720039   -1.759936
 H         -7.946822   -4.402269   -0.198220
 H         -9.070175   -4.480084   -1.557850
 C         -3.175690   -4.133172    1.264010
 H         -3.986047   -3.847548    1.943488
 H         -3.629005   -4.682258    0.428877
 H         -2.521533   -4.830683    1.795593
 C          1.022787   -1.411697    0.243858
 C          1.450025   -0.068679    0.156016
 C          1.999149   -2.429917    0.231254
 C          2.803668    0.195109    0.050664
 H          0.733177    0.744635    0.200069
 C          3.357687   -2.147631    0.127446
 H          1.686990   -3.467956    0.275267
 C          3.798888   -0.818845    0.019719
 N          3.403722    1.449080   -0.005766
 H          4.073376   -2.954762    0.103301
 C          5.101621   -0.153985   -0.034034
 C          4.780904    1.331421   -0.042980
 C          2.707634    2.719687   -0.027623
 C          6.390619   -0.645070   -0.101741
 O          5.534766    2.294505   -0.121700
 H          2.040805    2.780807   -0.894695
 H          2.118615    2.856736    0.886237
 H          3.461229    3.504880   -0.093975
 C          6.708122   -2.092324   -0.441026
 C          7.695319   -0.004749    0.067971
 O          5.950518   -3.017534   -0.709389
 N          8.085310   -2.210998   -0.462123
 C          8.689044   -0.997788   -0.146177
 C          8.141282    1.269303    0.455542
 C          8.777980   -3.444669   -0.774951
 C         10.045152   -0.759392   -0.015793
 C          9.502217    1.525860    0.589220
 H          7.426742    2.059963    0.624533
 H          9.425095   -3.314178   -1.649207
 H          9.386931   -3.775378    0.073956
 H          8.021381   -4.198791   -0.993405
 C         10.476831    0.532787    0.355747
 H         10.761625   -1.560026   -0.167258
 H          9.817600    2.529703    0.853364
 C         11.895553    0.841445    0.502188
 C         12.484557    1.885127    1.184293
 S         13.137508   -0.153784   -0.232146
 C         13.905046    1.904410    1.155459
 H         11.911141    2.620230    1.738959
 C         14.429214    0.841269    0.428076
 C         14.705936    2.961591    1.870850
 C         15.798170    0.458151    0.156968
 H         15.538683    2.531368    2.437620
 H         15.131016    3.694666    1.173431
 H         14.069627    3.509897    2.572066
 C         16.264188   -0.779642   -0.250870
 S         17.137566    1.597118    0.229299
 C         17.652990   -0.818432   -0.504480
 H         15.616061   -1.642283   -0.362589
 C         18.298404    0.386911   -0.296844
 H         18.172503   -1.710811   -0.836702
 C         19.719193    0.662585   -0.400651
 C         20.401345    1.846043   -0.641132
 S         20.847281   -0.678418   -0.212300
 C         21.817985    1.649750   -0.683604
 C         19.773087    3.198720   -0.858368
 C         22.208444    0.356957   -0.480374
 H         22.515606    2.459388   -0.872744
 H         18.875065    3.138668   -1.482043
 H         19.480772    3.671606    0.088274
 H         20.481304    3.871589   -1.351926
 H         23.210756   -0.049881   -0.472986
       124
T1: Total Energy = -5375.62298644
 C        -15.366411    2.626092   -0.380716
 C        -13.561119    1.253349   -0.122359
 C        -12.268797    0.765892   -0.191535
 C        -12.015120   -0.554758    0.239559
 C        -13.096422   -1.326194    0.714847
 C        -14.391693   -0.821174    0.775614
 C        -14.658048    0.495589    0.368178
 C        -15.861167    1.318707    0.222020
 H        -11.471781    1.379251   -0.598482
 H        -12.916389   -2.335020    1.070685
 H        -15.190253   -1.435535    1.161722
 O        -15.986679    3.647712   -0.648121
 N        -13.998323    2.507298   -0.537780
 C        -13.157841    3.564612   -1.063039
 H        -12.391553    3.847659   -0.333125
 H        -12.668139    3.248301   -1.990956
 H        -13.799447    4.422402   -1.266337
 C        -17.181107    1.092703    0.548104
 C        -17.626035   -0.042253    1.456857
 C        -18.418536    1.806467    0.201525
 O        -16.954893   -0.891241    2.033492
 N        -18.995007    0.066876    1.598508
 C        -19.487507    1.133827    0.850398
 C        -18.741070    2.876456   -0.646120
 C        -19.789465   -0.826562    2.416844
 C        -20.816310    1.508876    0.707306
 C        -20.076009    3.260152   -0.804282
 H        -17.957366    3.410779   -1.160227
 H        -20.311747   -0.270227    3.203018
 H        -20.527620   -1.359132    1.806654
 H        -19.108919   -1.545937    2.873085
 C        -21.101553    2.592835   -0.130940
 H        -21.608804    0.975552    1.222104
 H        -20.312692    4.094547   -1.457892
 H        -22.132821    2.910243   -0.258682
 C        -10.670733   -1.118855    0.191068
 C        -10.289417   -2.443973    0.239374
 S         -9.249164   -0.103744    0.054012
 C         -8.892567   -2.677568    0.156187
 H        -11.004061   -3.257366    0.302773
 C         -8.167088   -1.493016    0.037635
 C         -6.750520   -1.256586   -0.091529
 C         -6.118442   -0.058596   -0.399623
 S         -5.542555   -2.508658    0.170372
 C         -4.716526   -0.136939   -0.426949
 H         -6.662863    0.855677   -0.609341
 C         -4.209064   -1.400018   -0.142528
 H         -4.082841    0.713207   -0.654797
 C         -2.829564   -1.801217   -0.116879
 C         -2.231329   -3.021418    0.218743
 S         -1.602835   -0.620037   -0.570473
 C         -0.825716   -2.977130    0.109499
 C         -0.292674   -1.761611   -0.302158
 H         -0.211160   -3.840051    0.338510
 C         -8.314500   -4.068434    0.176456
 H         -7.657935   -4.253005   -0.681627
 H         -7.725537   -4.254083    1.083354
 H         -9.116317   -4.811953    0.148926
 C         -2.957790   -4.265696    0.657076
 H         -3.574846   -4.088440    1.545913
 H         -3.619497   -4.651804   -0.127837
 H         -2.241476   -5.055065    0.902148
 C          1.088382   -1.400348   -0.508846
 C          1.456749   -0.090799   -0.906537
 C          2.120119   -2.371357   -0.310267
 C          2.791292    0.201249   -1.094757
 H          0.702950    0.675965   -1.055077
 C          3.451701   -2.079077   -0.501664
 H          1.848277   -3.375399   -0.004345
 C          3.836911   -0.777163   -0.914780
 N          3.367838    1.398751   -1.454909
 H          4.205240   -2.844017   -0.369461
 C          5.073932   -0.144587   -1.163342
 C          4.766484    1.259110   -1.519370
 C          2.671987    2.631471   -1.757725
 C          6.406952   -0.685999   -1.121466
 O          5.520487    2.179275   -1.839656
 H          1.993261    2.501348   -2.608386
 H          2.096002    2.979466   -0.892511
 H          3.428007    3.376092   -2.011095
 C          6.734254   -2.092664   -1.445082
 C          7.627270   -0.050907   -0.804755
 O          6.000627   -3.015937   -1.802220
 N          8.126477   -2.231877   -1.294529
 C          8.681064   -1.031304   -0.911361
 C          7.988236    1.254836   -0.382200
 C          8.838652   -3.467483   -1.542600
 C         10.002126   -0.737925   -0.645513
 C          9.306076    1.548415   -0.113263
 H          7.228828    2.021338   -0.303307
 H          9.565366   -3.346878   -2.354170
 H          9.363827   -3.804950   -0.641629
 H          8.098496   -4.215491   -1.830415
 C         10.347137    0.575080   -0.238937
 H         10.762854   -1.506096   -0.742292
 H          9.559529    2.554772    0.200782
 C         11.713283    0.937477    0.049617
 C         12.223764    2.161128    0.464528
 S         13.032806   -0.215483   -0.098937
 C         13.619508    2.203103    0.667708
 H         11.600196    3.032748    0.626604
 C         14.232283    0.972955    0.404632
 C         14.321259    3.456340    1.120901
 C         15.609075    0.564996    0.484191
 H         14.862560    3.305396    2.062490
 H         15.048379    3.809900    0.379891
 H         13.595721    4.259112    1.280558
 C         16.131042   -0.699155    0.240738
 S         16.920482    1.667033    0.900566
 C         17.528720   -0.783282    0.375970
 H         15.514004   -1.546154   -0.039022
 C         18.137638    0.410847    0.730813
 H         18.086037   -1.698014    0.205810
 C         19.543539    0.643883    0.983237
 C         20.277539    1.822070    1.047562
 S         20.586194   -0.751632    1.259979
 C         21.662241    1.578009    1.305063
 C         19.733783    3.214843    0.860598
 C         21.981344    0.256463    1.437044
 H         22.392768    2.376959    1.380435
 H         19.098373    3.292337   -0.028702
 H         19.132210    3.539716    1.719245
 H         20.554322    3.929906    0.748668
 H         22.949566   -0.186283    1.628454
       124
S1: Total Energy = -5375.60248916
 C        -15.380559    2.642524   -0.545947
 C        -13.582955    1.272150   -0.224909
 C        -12.290040    0.786771   -0.227873
 C        -12.060569   -0.549505    0.177400
 C        -13.173043   -1.336822    0.557452
 C        -14.467211   -0.832002    0.558927
 C        -14.709120    0.499550    0.179585
 C        -15.898609    1.323230   -0.008226
 H        -11.470788    1.415395   -0.561078
 H        -13.018471   -2.359592    0.883187
 H        -15.287839   -1.456288    0.877768
 O        -15.987803    3.670047   -0.824195
 N        -14.000898    2.533767   -0.627933
 C        -13.139229    3.607053   -1.080245
 H        -12.418458    3.880100   -0.301575
 H        -12.594224    3.314477   -1.984950
 H        -13.774734    4.464866   -1.302042
 C        -17.237272    1.081185    0.248327
 C        -17.717041   -0.054389    1.129914
 C        -18.454517    1.784207   -0.162948
 O        -17.069450   -0.896224    1.745798
 N        -19.095302    0.039185    1.195960
 C        -19.555152    1.102108    0.423984
 C        -18.735629    2.855174   -1.026111
 C        -19.923131   -0.862308    1.970505
 C        -20.875883    1.468916    0.205073
 C        -20.061322    3.229818   -1.258853
 H        -17.926351    3.396357   -1.492006
 H        -20.494089   -0.312063    2.726659
 H        -20.621006   -1.404305    1.322218
 H        -19.260047   -1.573387    2.464176
 C        -21.119688    2.553064   -0.646314
 H        -21.693402    0.929441    0.672379
 H        -20.267043    4.064266   -1.922917
 H        -22.144044    2.863925   -0.832575
 C        -10.722509   -1.108492    0.203030
 C        -10.339464   -2.434062    0.359143
 S         -9.297325   -0.103533    0.027605
 C         -8.952085   -2.672278    0.335108
 H        -11.055729   -3.240121    0.470322
 C         -8.211911   -1.490473    0.155024
 C         -6.806414   -1.269395    0.070549
 C         -6.152816   -0.048195   -0.141197
 S         -5.608022   -2.553431    0.235306
 C         -4.763868   -0.136224   -0.170194
 H         -6.688133    0.885694   -0.272458
 C         -4.262560   -1.432944    0.017352
 H         -4.119508    0.721888   -0.324757
 C         -2.897402   -1.832869    0.029641
 C         -2.303543   -3.093840    0.225594
 S         -1.651304   -0.609140   -0.244141
 C         -0.901198   -3.041781    0.156188
 C         -0.356386   -1.783115   -0.088006
 H         -0.289722   -3.925311    0.296668
 C         -8.375237   -4.054537    0.478700
 H         -7.772467   -4.339166   -0.392061
 H         -7.731964   -4.139126    1.363018
 H         -9.177626   -4.790221    0.581941
 C         -3.043400   -4.377325    0.488416
 H         -3.656235   -4.317668    1.395943
 H         -3.711702   -4.640508   -0.340534
 H         -2.336614   -5.201477    0.618363
 C          1.033653   -1.406303   -0.213979
 C          1.422352   -0.049608   -0.339984
 C          2.047063   -2.400669   -0.212165
 C          2.762713    0.252960   -0.468460
 H          0.682855    0.744913   -0.319067
 C          3.390656   -2.085594   -0.346283
 H          1.769687   -3.445210   -0.120381
 C          3.791714   -0.743265   -0.494916
 N          3.344865    1.503063   -0.566328
 H          4.132186   -2.871193   -0.370584
 C          5.061887   -0.063652   -0.592691
 C          4.738795    1.390401   -0.637816
 C          2.644396    2.767827   -0.608727
 C          6.371124   -0.577547   -0.668575
 O          5.475668    2.370396   -0.759398
 H          1.965462    2.812232   -1.468421
 H          2.065582    2.928204    0.308718
 H          3.396873    3.551959   -0.702729
 C          6.689728   -1.968018   -1.110753
 C          7.643013    0.046833   -0.401448
 O          5.946835   -2.873561   -1.493154
 N          8.081205   -2.099865   -1.076832
 C          8.667542   -0.921835   -0.648644
 C          8.052248    1.300675    0.096630
 C          8.778270   -3.307652   -1.461365
 C         10.009948   -0.670746   -0.445937
 C          9.397594    1.562498    0.305738
 H          7.314128    2.067953    0.282345
 H          9.453350   -3.119983   -2.304496
 H          9.360797   -3.709266   -0.623690
 H          8.023706   -4.036967   -1.759182
 C         10.405184    0.599680    0.038804
 H         10.745940   -1.446134   -0.634604
 H          9.683110    2.545732    0.664411
 C         11.800557    0.919318    0.264165
 C         12.350985    2.020909    0.903086
 S         13.092326   -0.133139   -0.291276
 C         13.761141    2.045231    0.969466
 H         11.745453    2.804805    1.343690
 C         14.342612    0.925653    0.362576
 C         14.507449    3.167961    1.640160
 C         15.715971    0.542103    0.204907
 H         15.148526    2.806519    2.453078
 H         15.149433    3.711252    0.935911
 H         13.803362    3.887750    2.067271
 C         16.208333   -0.628862   -0.365086
 S         17.066673    1.552348    0.719328
 C         17.608675   -0.713817   -0.389988
 H         15.562885   -1.408403   -0.754724
 C         18.258873    0.385189    0.159276
 H         18.139873   -1.564605   -0.802810
 C         19.681099    0.589643    0.288266
 C         20.412319    1.670130    0.776762
 S         20.766152   -0.699188   -0.241862
 C         21.819564    1.439235    0.711885
 C         19.840260    2.954094    1.317499
 C         22.163712    0.223107    0.192136
 H         22.548057    2.170541    1.046465
 H         19.213310    3.468583    0.579142
 H         19.221963    2.786478    2.208095
 H         20.646052    3.637668    1.600418
 H         23.152523   -0.187403    0.037839
