       124
S0: Total Energy = -5450.61630185
 C         24.842825    0.537584    1.149653
 C         24.233566    1.324369    2.089393
 S         23.685928   -0.261898    0.129684
 C         22.814350    1.291985    1.997435
 H         24.778750    1.907835    2.823247
 C         22.338441    0.479178    0.985896
 H         22.152368    1.847956    2.653434
 C         20.954116    0.248737    0.653134
 C         20.475777   -0.544765   -0.336934
 H         20.251280    0.787929    1.288023
 H         21.176786   -1.083339   -0.974152
 C         19.092224   -0.774338   -0.664405
 C         18.611726   -1.576518   -1.685345
 S         17.750500   -0.055997    0.211968
 C         17.201840   -1.613927   -1.771794
 H         19.271107   -2.116215   -2.357239
 C         16.560983   -0.841835   -0.821106
 H         16.669491   -2.175876   -2.530675
 C         15.129412   -0.644740   -0.622459
 C         14.638561    0.439737    0.137760
 C         14.199115   -1.537852   -1.195911
 C         13.272102    0.577397    0.299246
 H         15.317941    1.170131    0.564503
 C         12.827091   -1.384848   -1.024686
 H         14.558128   -2.388009   -1.766079
 C         12.323094   -0.323427   -0.255213
 N         12.614711    1.599824    0.976308
 H         12.148432   -2.099897   -1.463275
 C         10.991275    0.181877    0.077600
 C         11.243971    1.449546    0.877781
 C         13.251691    2.684596    1.695352
 C          9.724635   -0.305824   -0.177822
 O         10.445165    2.211394    1.410036
 H         13.888944    2.295565    2.497033
 H         13.860845    3.295339    1.019501
 H         12.461557    3.299777    2.126705
 C          9.465253   -1.724881   -0.655357
 C          8.396639    0.293435   -0.042744
 O         10.257525   -2.632453   -0.879999
 N          8.094066   -1.875603   -0.752140
 C          7.443594   -0.692938   -0.414949
 C          7.902906    1.570374    0.269622
 C          7.451059   -3.110626   -1.153085
 C          6.081029   -0.459317   -0.454268
 C          6.534945    1.821399    0.235648
 H          8.585176    2.353071    0.563012
 H          6.783773   -3.473532   -0.363662
 H          6.872239   -2.967852   -2.072554
 H          8.236450   -3.845962   -1.329925
 C          5.599868    0.824993   -0.116837
 H          5.398429   -1.242441   -0.767273
 H          6.182303    2.807724    0.517635
 C          4.172799    1.126547   -0.134316
 C          3.553042    2.362325   -0.167523
 S          2.961846   -0.150429   -0.109436
 C          2.142547    2.295458   -0.179616
 H          4.102586    3.295822   -0.207095
 C          1.639486    1.004901   -0.156143
 H          1.497974    3.167704   -0.213081
 C          0.251064    0.630965   -0.160555
 C         -0.251074   -0.631026   -0.160654
 H         -0.435863    1.476914   -0.164041
 H          0.435854   -1.476974   -0.164217
 C         -1.639495   -1.004966   -0.156367
 C         -2.142546   -2.295524   -0.179982
 S         -2.961866    0.150354   -0.109682
 C         -3.553042   -2.362401   -0.167963
 H         -1.497965   -3.167763   -0.213484
 C         -4.172806   -1.126630   -0.134670
 H         -4.102584   -3.295896   -0.207636
 C         -5.599880   -0.825090   -0.117218
 C         -6.081047    0.459195   -0.454734
 C         -6.534943   -1.821491    0.235313
 C         -7.443616    0.692803   -0.415441
 H         -5.398447    1.242302   -0.767783
 C         -7.902909   -1.570479    0.269259
 H         -6.182285   -2.807794    0.517356
 C         -8.396646   -0.293559   -0.043170
 N         -8.094111    1.875425   -0.752740
 H         -8.585175   -2.353168    0.562681
 C         -9.724651    0.305655   -0.178316
 C         -9.465300    1.724678   -0.655969
 C         -7.451131    3.110411   -1.153842
 C        -10.991273   -0.182036    0.077207
 O        -10.257593    2.632190   -0.880774
 H         -6.784004    3.473547   -0.364388
 H         -6.872146    2.967476   -2.073182
 H         -8.236548    3.845648   -1.330975
 C        -11.243926   -1.449554    0.877644
 C        -12.323106    0.323209   -0.255626
 O        -10.445091   -2.211382    1.409882
 N        -12.614664   -1.599755    0.976353
 C        -13.272089   -0.577477    0.299098
 C        -12.827124    1.384432   -1.025357
 C        -13.251610   -2.684477    1.695501
 C        -14.638555   -0.439843    0.137646
 C        -14.199156    1.537406   -1.196554
 H        -12.148479    2.099358   -1.464167
 H        -13.888818   -2.295394    2.497192
 H        -13.860804   -3.295263    1.019722
 H        -12.461456   -3.299633    2.126854
 C        -15.129427    0.644447   -0.622824
 H        -15.317929   -1.170124    0.564594
 H        -14.558199    2.387418   -1.766918
 C        -16.561008    0.841500   -0.821460
 C        -17.201898    1.613187   -1.772452
 S        -17.750478    0.056153    0.212039
 C        -18.611784    1.575847   -1.685902
 H        -16.669573    2.174777   -2.531616
 C        -19.092234    0.774130   -0.664580
 H        -19.271191    2.115260   -2.357998
 C        -20.475775    0.544719   -0.336933
 C        -20.954077   -0.248303    0.653541
 H        -21.176810    1.082982   -0.974384
 H        -20.251233   -0.787229    1.288641
 C        -22.338393   -0.478542    0.986461
 C        -22.814287   -1.291265    1.998070
 S        -23.685917    0.262695    0.130422
 C        -24.233482   -1.323521    2.090198
 H        -22.152291   -1.847319    2.653992
 C        -24.842797   -0.536700    1.150524
 H        -24.778595   -1.906947    2.824134
 H        -25.900565   -0.374702    0.991792
 H         25.900599    0.375699    0.990821
       124
T1: Total Energy = -5450.58232721
 C        -24.539363   -1.431858   -1.727141
 C        -24.033801   -2.507147   -1.045707
 S        -23.323387   -0.231499   -2.035346
 C        -22.647900   -2.374863   -0.761436
 H        -24.631606   -3.364528   -0.756720
 C        -22.092056   -1.195732   -1.226405
 H        -22.064219   -3.119690   -0.230358
 C        -20.719703   -0.787415   -1.087861
 C        -20.162432    0.367726   -1.540698
 H        -20.093955   -1.506090   -0.559357
 H        -20.785976    1.088251   -2.069070
 C        -18.793249    0.767994   -1.401105
 C        -18.230514    1.951142   -1.866499
 S        -17.567070   -0.201239   -0.598398
 C        -16.859840    2.082109   -1.591113
 H        -18.813820    2.699314   -2.393127
 C        -16.311529    1.003236   -0.900768
 H        -16.282073    2.950286   -1.884371
 C        -14.951836    0.808388   -0.460794
 C        -14.573630   -0.335547    0.285244
 C        -13.949162    1.777380   -0.782862
 C        -13.259091   -0.474388    0.678212
 H        -15.304845   -1.094134    0.545279
 C        -12.638097    1.638670   -0.387337
 H        -14.226396    2.651133   -1.361779
 C        -12.244728    0.505591    0.371615
 N        -12.677107   -1.503878    1.383323
 H        -11.909835    2.401633   -0.627898
 C        -11.018340    0.041732    0.894716
 C        -11.303802   -1.253030    1.554901
 C        -13.348796   -2.673942    1.908527
 C         -9.713367    0.647397    0.855968
 O        -10.552843   -2.011291    2.169973
 H        -14.128017   -2.391262    2.625478
 H        -13.802726   -3.260527    1.101545
 H        -12.595778   -3.279205    2.415207
 C         -9.485160    2.111430    0.845982
 C         -8.439175    0.041887    0.839944
 O        -10.293849    3.039588    0.877247
 N         -8.092703    2.306526    0.814513
 C         -7.447098    1.090511    0.806915
 C         -7.974909   -1.299350    0.799608
 C         -7.467029    3.612141    0.819062
 C         -6.093336    0.835401    0.763322
 C         -6.623818   -1.555947    0.752178
 H         -8.686203   -2.113561    0.837144
 H         -6.840398    3.744782    1.708409
 H         -6.850518    3.754154   -0.075889
 H         -8.266608    4.354190    0.828165
 C         -5.646303   -0.509977    0.737529
 H         -5.382987    1.655556    0.740584
 H         -6.292657   -2.588088    0.730961
 C         -4.243390   -0.833357    0.692817
 C         -3.636569   -2.088349    0.635744
 S         -3.000663    0.421264    0.705293
 C         -2.235526   -2.047365    0.602106
 H         -4.197931   -3.014585    0.617281
 C         -1.702163   -0.761427    0.632990
 H         -1.607063   -2.930694    0.556436
 C         -0.314060   -0.421026    0.612791
 C          0.215219    0.835245    0.651043
 H          0.356155   -1.278629    0.563546
 H         -0.456138    1.691715    0.704463
 C          1.604871    1.182057    0.629771
 C          2.132191    2.464846    0.686984
 S          2.906968    0.006570    0.518836
 C          3.540440    2.508048    0.649467
 H          1.503044    3.345513    0.763790
 C          4.139102    1.262220    0.562042
 H          4.106858    3.430027    0.710878
 C          5.559679    0.940938    0.508383
 C          6.025424   -0.368711    0.760765
 C          6.505132    1.941497    0.195515
 C          7.384885   -0.615402    0.705805
 H          5.333083   -1.166318    1.009191
 C          7.870504    1.679496    0.155608
 H          6.163514    2.944024   -0.038454
 C          8.351876    0.388128    0.425330
 N          8.016082   -1.840351    0.894478
 H          8.562930    2.474242   -0.075003
 C          9.663602   -0.258722    0.408779
 C          9.382191   -1.719940    0.714193
 C          7.359500   -3.089065    1.224938
 C         10.938245    0.237772    0.216592
 O         10.161448   -2.656506    0.845661
 H          6.825090   -3.005648    2.177659
 H          6.649489   -3.374737    0.440677
 H          8.132983   -3.852892    1.309351
 C         11.265469    1.721516    0.269391
 C         12.221426   -0.421241   -0.021164
 O         10.528903    2.677610    0.481623
 N         12.630650    1.841873    0.087654
 C         13.213376    0.593104   -0.105802
 C         12.638412   -1.741838   -0.255999
 C         13.331008    3.110497    0.098421
 C         14.544825    0.335547   -0.376338
 C         13.974020   -2.017383   -0.529360
 H         11.924525   -2.548916   -0.198067
 H         14.088596    3.127720    0.889534
 H         13.817166    3.295031   -0.866147
 H         12.592771    3.890472    0.286819
 C         14.950783   -1.000277   -0.590544
 H         15.257800    1.149840   -0.451763
 H         14.271651   -3.050911   -0.670522
 C         16.342417   -1.330938   -0.875412
 C         16.856657   -2.484689   -1.436851
 S         17.649449   -0.209773   -0.508740
 C         18.262338   -2.475398   -1.579181
 H         16.233247   -3.309610   -1.762453
 C         18.866271   -1.313689   -1.129205
 H         18.830272   -3.294454   -2.008169
 C         20.276745   -1.023520   -1.144937
 C         20.876141    0.113722   -0.713581
 H         20.889355   -1.827694   -1.551822
 H         20.261737    0.917390   -0.308058
 C         22.288473    0.405587   -0.724793
 C         22.888701    1.569378   -0.282570
 S         23.512297   -0.709437   -1.322257
 C         24.304748    1.573403   -0.417995
 H         22.317263    2.395297    0.128433
 C         24.787430    0.414348   -0.963018
 H         24.938106    2.402751   -0.122653
 H         25.813829    0.147775   -1.176943
 H        -25.552876   -1.268817   -2.068569
       124
S1: Total Energy = -5450.56280940
 C        -24.813417   -0.849630   -0.437155
 C        -24.286658   -1.893369    0.276703
 S        -23.579936    0.231793   -1.006574
 C        -22.870424   -1.833215    0.373911
 H        -24.890553   -2.678509    0.718210
 C        -22.311676   -0.740971   -0.267008
 H        -22.267049   -2.566958    0.898283
 C        -20.911703   -0.417710   -0.338141
 C        -20.352836    0.651037   -0.966048
 H        -20.265321   -1.127881    0.177026
 H        -20.997933    1.361226   -1.482749
 C        -18.956504    0.972380   -1.033554
 C        -18.394543    2.062586   -1.684786
 S        -17.692894    0.014566   -0.276782
 C        -16.992493    2.130491   -1.586674
 H        -18.997123    2.787223   -2.222580
 C        -16.424624    1.094209   -0.856833
 H        -16.406233    2.913142   -2.053438
 C        -15.025535    0.851433   -0.561739
 C        -14.598594   -0.358264    0.036922
 C        -14.046190    1.828652   -0.873172
 C        -13.255864   -0.535756    0.304135
 H        -15.309567   -1.145828    0.264844
 C        -12.700883    1.639928   -0.597338
 H        -14.353470    2.766283   -1.323408
 C        -12.261381    0.449105    0.016105
 N        -12.648120   -1.657195    0.847498
 H        -11.988111    2.418364   -0.826470
 C        -10.976369   -0.103992    0.377229
 C        -11.270048   -1.478204    0.916196
 C        -13.322838   -2.856503    1.297727
 C         -9.687162    0.439726    0.322752
 O        -10.510062   -2.319576    1.390308
 H        -14.040134   -2.625121    2.093270
 H        -13.853296   -3.341509    0.470106
 H        -12.560314   -3.533534    1.684552
 C         -9.416930    1.914832    0.224944
 C         -8.386373   -0.186250    0.383267
 O        -10.198330    2.861763    0.186267
 N         -8.033394    2.078251    0.238901
 C         -7.400217    0.848891    0.314575
 C         -7.917595   -1.515772    0.406244
 C         -7.380298    3.369108    0.182474
 C         -6.044037    0.603374    0.306279
 C         -6.557626   -1.776907    0.391940
 H         -8.623596   -2.331121    0.461264
 H         -6.764411    3.534119    1.073749
 H         -6.746373    3.448361   -0.708332
 H         -8.162424    4.127847    0.138481
 C         -5.587133   -0.738975    0.352292
 H         -5.340794    1.428234    0.254641
 H         -6.232743   -2.810959    0.420621
 C         -4.181262   -1.053516    0.353521
 C         -3.567552   -2.312143    0.357456
 S         -2.948607    0.207237    0.349943
 C         -2.173753   -2.268592    0.355157
 H         -4.128402   -3.238672    0.359285
 C         -1.639401   -0.972812    0.350794
 H         -1.540372   -3.149421    0.356446
 C         -0.266428   -0.635637    0.349906
 C          0.266423    0.635577    0.349919
 H          0.410011   -1.489438    0.350889
 H         -0.410017    1.489378    0.350951
 C          1.639396    0.972752    0.350774
 C          2.173747    2.268533    0.355172
 S          2.948602   -0.207295    0.349846
 C          3.567546    2.312084    0.357435
 H          1.540365    3.149361    0.356511
 C          4.181257    1.053458    0.353439
 H          4.128395    3.238614    0.359287
 C          5.587128    0.738917    0.352172
 C          6.044031   -0.603430    0.306120
 C          6.557622    1.776848    0.391835
 C          7.400210   -0.848948    0.314400
 H          5.340788   -1.428290    0.254476
 C          7.917591    1.515712    0.406118
 H          6.232739    2.810900    0.420543
 C          8.386368    0.186191    0.383105
 N          8.033386   -2.078307    0.238705
 H          8.623593    2.331059    0.461154
 C          9.687157   -0.439785    0.322579
 C          9.416923   -1.914890    0.224767
 C          7.380289   -3.369162    0.182264
 C         10.976360    0.103945    0.377053
 O         10.198319   -2.861825    0.186083
 H          6.764400   -3.534182    1.073536
 H          6.746365   -3.448405   -0.708544
 H          8.162414   -4.127902    0.138264
 C         11.270010    1.478173    0.915997
 C         12.261385   -0.449130    0.015936
 O         10.510010    2.319514    1.390141
 N         12.648082    1.657174    0.847341
 C         13.255850    0.535744    0.303986
 C         12.700918   -1.639947   -0.597498
 C         13.322780    2.856475    1.297618
 C         14.598588    0.358271    0.036803
 C         14.046235   -1.828654   -0.873298
 H         11.988164   -2.418393   -0.826645
 H         14.040048    2.625081    2.093184
 H         13.853267    3.341498    0.470026
 H         12.560239    3.533497    1.684427
 C         15.025560   -0.851421   -0.561845
 H         15.309545    1.145845    0.264742
 H         14.353539   -2.766282   -1.323524
 C         16.424659   -1.094180   -0.856903
 C         16.992560   -2.130455   -1.586729
 S         17.692901   -0.014518   -0.276824
 C         18.394612   -2.062532   -1.684807
 H         16.406322   -2.913115   -2.053506
 C         18.956542   -0.972318   -1.033562
 H         18.997214   -2.787162   -2.222584
 C         20.352868   -0.650955   -0.966022
 C         20.911706    0.417795   -0.338094
 H         20.997987   -1.361129   -1.482715
 H         20.265302    1.127950    0.177068
 C         22.311672    0.741079   -0.266931
 C         22.870390    1.833317    0.374024
 S         23.579961   -0.231645   -1.006500
 C         24.286625    1.893497    0.276841
 H         22.266993    2.567038    0.898403
 C         24.813414    0.849785   -0.437032
 H         24.890499    2.678637    0.718378
 H         25.851485    0.647519   -0.664774
 H        -25.851481   -0.647340   -0.664908
