       128
S0: Total Energy = -4916.30745872
 C          5.478500   -2.168230    1.069433
 C          3.249280   -1.705254    0.898235
 C          1.878826   -1.877017    0.838068
 C          1.065923   -0.755689    0.560083
 C          1.686611    0.491953    0.358839
 C          3.068652    0.651335    0.435307
 C          3.890600   -0.449041    0.718926
 C          5.335388   -0.677299    0.807664
 H          1.435589   -2.849779    1.018585
 H          1.078486    1.358817    0.118843
 H          3.506064    1.626037    0.285486
 O          6.488454   -2.835968    1.257834
 N          4.201716   -2.694150    1.126061
 C          3.923222   -4.092584    1.382716
 H          3.321949   -4.207806    2.291263
 H          3.386782   -4.542382    0.539690
 H          4.880020   -4.598263    1.515334
 C          6.414582    0.178554    0.725936
 C          6.280380    1.691283    0.806604
 C          7.853399   -0.063662    0.592499
 O          5.279070    2.380225    0.961609
 N          7.556620    2.215882    0.731839
 C          8.499158    1.202918    0.580887
 C          8.663486   -1.193439    0.406673
 C          7.844640    3.634223    0.799982
 C          9.864147    1.361336    0.430644
 C         10.039418   -1.049345    0.241719
 H          8.222120   -2.177818    0.401809
 H          8.493108    3.857284    1.654397
 H          8.334622    3.975391   -0.118875
 H          6.895146    4.156503    0.920066
 C         10.665947    0.211595    0.255122
 H         10.312304    2.347739    0.465598
 H         10.637428   -1.941428    0.082168
 C         12.112123    0.349409    0.083854
 C         12.814294    1.459485   -0.306422
 S         13.193651   -1.023349    0.389365
 C         14.232494    1.268157   -0.386507
 H         12.337469    2.398752   -0.565390
 C         14.606462   -0.061820   -0.033023
 C         15.216644    2.203299   -0.758898
 C         15.933302   -0.485772   -0.029820
 C         16.538286    1.775695   -0.765049
 H         14.936343    3.218430   -1.021589
 C         16.908483    0.442480   -0.395829
 H         16.201597   -1.500864    0.248304
 N         17.686498    2.483813   -1.102067
 C         18.350154    0.369855   -0.500646
 C         18.794882    1.660603   -0.929527
 C         17.728588    3.879406   -1.486164
 C         19.270296   -0.652680   -0.269580
 C         20.140351    1.953132   -1.118633
 H         16.817606    4.136286   -2.032823
 H         17.820628    4.544656   -0.617773
 H         18.577653    4.049954   -2.152752
 C         20.619174   -0.363796   -0.467913
 H         18.945080   -1.636503    0.056353
 C         21.069068    0.922853   -0.887227
 H         20.478783    2.937209   -1.427403
 S         21.979378   -1.466017   -0.246890
 C         22.504566    0.969421   -1.013028
 C         23.108587   -0.208208   -0.710135
 H         23.047314    1.857262   -1.320366
 H         24.167492   -0.431503   -0.727570
 C         -0.386324   -0.909884    0.475379
 S         -1.456877    0.491914    0.663612
 C         -1.101576   -2.057301    0.252577
 C         -2.884161   -0.509650    0.421591
 C         -2.522472   -1.873976    0.215223
 H         -0.633018   -3.021176    0.085331
 C         -4.209527   -0.082468    0.418377
 C         -3.519195   -2.843478   -0.004897
 C         -5.197223   -1.044703    0.203123
 H         -4.467503    0.961452    0.571080
 C         -4.840976   -2.416862    0.000324
 H         -3.247487   -3.880005   -0.177470
 C         -6.639324   -0.975381    0.120533
 N         -6.002374   -3.161418   -0.175344
 C         -7.548727    0.077523    0.230739
 C         -7.099699   -2.308310   -0.129133
 C         -6.054018   -4.581020   -0.457390
 C         -8.900665   -0.220947    0.081176
 H         -7.211430    1.091809    0.423345
 C         -8.447031   -2.606495   -0.286792
 H         -6.984756   -4.998273   -0.064967
 H         -5.997156   -4.790562   -1.533422
 H         -5.223880   -5.084201    0.044777
 S        -10.243772    0.914100    0.162793
 C         -9.364612   -1.544135   -0.180725
 H         -8.795456   -3.613606   -0.492667
 C        -11.415717   -0.381485   -0.144192
 C        -10.791934   -1.591239   -0.301895
 C        -12.848551   -0.091531   -0.204942
 H        -11.332567   -2.515781   -0.473747
 C        -13.721258   -0.988648   -0.859763
 C        -13.391481    1.066241    0.383695
 C        -15.071440   -0.693968   -0.896721
 H        -13.337583   -1.881249   -1.340515
 C        -14.753733    1.355003    0.327437
 H        -12.738512    1.752870    0.913837
 C        -15.632459    0.481889   -0.329124
 N        -16.076452   -1.471421   -1.465569
 H        -15.130813    2.258538    0.780535
 C        -17.084134    0.416119   -0.527718
 C        -17.315556   -0.891410   -1.272019
 C        -15.880168   -2.722272   -2.169907
 C        -18.101121    1.286821   -0.203429
 O        -18.357001   -1.374334   -1.699289
 H        -15.240256   -2.576686   -3.047217
 H        -15.421336   -3.469932   -1.513242
 H        -16.860625   -3.074538   -2.491439
 C        -17.854991    2.730713    0.208345
 C        -19.563659    1.136857   -0.197623
 O        -16.798738    3.343354    0.316386
 N        -19.092406    3.312718    0.397688
 C        -20.112938    2.387896    0.188352
 C        -20.450466    0.067689   -0.391432
 C        -19.276250    4.699865    0.773842
 C        -21.475687    2.600351    0.345363
 C        -21.824796    0.266390   -0.229843
 H        -20.071243   -0.900012   -0.680729
 H        -19.866160    5.230301    0.018283
 H        -19.784637    4.776419    1.741621
 H        -18.287716    5.154044    0.846653
 C        -22.334374    1.517293    0.124948
 H        -21.862672    3.571424    0.636230
 H        -22.502288   -0.567262   -0.389392
 H        -23.406126    1.656072    0.237501
       128
T1: Total Energy = -4916.27007758
 C         -5.543396   -2.771088   -1.447831
 C         -3.314770   -2.338737   -1.230903
 C         -1.950202   -2.453592   -1.064214
 C         -1.161677   -1.276479   -1.045966
 C         -1.808945   -0.012997   -1.199221
 C         -3.171116    0.102649   -1.370242
 C         -3.974396   -1.065802   -1.403724
 C         -5.356868   -1.306193   -1.533174
 H         -1.492378   -3.429994   -0.956219
 H         -1.210817    0.892705   -1.173968
 H         -3.628122    1.073981   -1.505672
 O         -6.573203   -3.442047   -1.526635
 N         -4.266412   -3.333426   -1.262924
 C         -4.027266   -4.757423   -1.156381
 H         -3.376380   -5.108139   -1.965335
 H         -3.566501   -5.006586   -0.193596
 H         -4.995317   -5.254685   -1.232207
 C         -6.435504   -0.368179   -1.727796
 C         -6.304153    0.888464   -2.496913
 C         -7.769274   -0.429582   -1.276598
 O         -5.330672    1.352295   -3.092174
 N         -7.560540    1.521550   -2.458895
 C         -8.449861    0.758442   -1.736024
 C         -8.505653   -1.345114   -0.482011
 C         -7.844033    2.776838   -3.122376
 C         -9.775277    1.014177   -1.451574
 C         -9.828204   -1.086262   -0.194695
 H         -8.032998   -2.251695   -0.127726
 H         -8.622438    2.652080   -3.883694
 H         -8.167731    3.536437   -2.401641
 H         -6.920907    3.105220   -3.602087
 C        -10.497755    0.084303   -0.663947
 H        -10.254995    1.908146   -1.832785
 H        -10.374374   -1.795477    0.419673
 C        -11.889523    0.328959   -0.337359
 C        -12.633665    1.464661   -0.574927
 S        -12.870606   -0.912373    0.474688
 C        -13.986574    1.397010   -0.125472
 H        -12.226129    2.350132   -1.049571
 C        -14.280757    0.139444    0.483772
 C        -14.984993    2.387628   -0.220858
 C        -15.539406   -0.162980    0.994262
 C        -16.236550    2.087170    0.298086
 H        -14.767459    3.341028   -0.691629
 C        -16.527878    0.818476    0.898597
 H        -15.748667   -1.126745    1.449098
 N        -17.377681    2.878963    0.346157
 C        -17.915689    0.861165    1.300764
 C        -18.410974    2.151721    0.928928
 C        -17.493232    4.214214   -0.202915
 C        -18.753362   -0.064228    1.924853
 C        -19.728652    2.529944    1.155534
 H        -16.540399    4.738755   -0.093825
 H        -17.771981    4.201373   -1.264515
 H        -18.248629    4.773770    0.353851
 C        -20.072368    0.316886    2.160533
 H        -18.388269   -1.045982    2.212349
 C        -20.573917    1.598384    1.784626
 H        -20.109376    3.502217    0.858938
 S        -21.332246   -0.654060    2.924384
 C        -21.965523    1.746474    2.129179
 C        -22.489278    0.647549    2.730946
 H        -22.536867    2.646711    1.928357
 H        -23.502784    0.507963    3.084188
 C          0.275291   -1.360062   -0.868914
 S          1.297305    0.089363   -1.002687
 C          1.038464   -2.474675   -0.593455
 C          2.750715   -0.846442   -0.677940
 C          2.439004   -2.226098   -0.479558
 H          0.615351   -3.463987   -0.461318
 C          4.052441   -0.361023   -0.609718
 C          3.466536   -3.150898   -0.203069
 C          5.070106   -1.278491   -0.338717
 H          4.271680    0.692326   -0.757712
 C          4.765419   -2.665967   -0.145022
 H          3.231447   -4.197789   -0.039799
 C          6.500322   -1.144879   -0.189259
 N          5.948764   -3.356272    0.090830
 C          7.366078   -0.052105   -0.266670
 C          7.008128   -2.455084    0.089562
 C          6.049797   -4.772847    0.375940
 C          8.721453   -0.289165   -0.057053
 H          6.992895    0.944878   -0.481629
 C          8.358917   -2.691535    0.308307
 H          7.018787   -5.146020    0.035524
 H          5.943305   -4.986662    1.447225
 H          5.272624   -5.312242   -0.171433
 S         10.015087    0.903885   -0.091673
 C          9.232068   -1.589429    0.233881
 H          8.743256   -3.680708    0.535922
 C         11.229169   -0.336744    0.271643
 C         10.653425   -1.572416    0.413688
 C         12.644218    0.017284    0.385067
 H         11.226847   -2.471097    0.613792
 C         13.531453   -0.837351    1.076124
 C         13.155966    1.196324   -0.189033
 C         14.864829   -0.481865    1.161183
 H         13.170892   -1.744744    1.546995
 C         14.500662    1.546745   -0.083633
 H         12.493291    1.850854   -0.746975
 C         15.392961    0.716623    0.609308
 N         15.882091   -1.211420    1.769900
 H         14.852987    2.464719   -0.527406
 C         16.837844    0.718011    0.862985
 C         17.100077   -0.576210    1.620114
 C         15.718121   -2.471267    2.466466
 C         17.825652    1.633828    0.574239
 O         18.145578   -1.011605    2.086618
 H         15.038894   -2.357629    3.318536
 H         15.320963   -3.238701    1.792586
 H         16.701123   -2.777184    2.825443
 C         17.529332    3.062912    0.143043
 C         19.292798    1.553085    0.628511
 O         16.451031    3.624934   -0.011805
 N         18.744634    3.701241   -0.000983
 C         19.797991    2.826897    0.256755
 C         20.220733    0.528597    0.866671
 C         18.878084    5.093485   -0.379555
 C         21.154458    3.103416    0.155002
 C         21.589618    0.791889    0.760928
 H         19.876228   -0.454729    1.146421
 H         19.402374    5.657860    0.399459
 H         19.429697    5.188812   -1.321606
 H         17.873128    5.497248   -0.505177
 C         22.053655    2.063817    0.418724
 H         21.506712    4.090486   -0.126200
 H         22.298607   -0.007667    0.954454
 H         23.121370    2.253060    0.349865
       128
S1: Total Energy = -4916.24395207
 C         -5.521284   -2.496682   -1.282479
 C         -3.275678   -2.073478   -1.151749
 C         -1.908733   -2.221959   -1.036905
 C         -1.097043   -1.061213   -0.979385
 C         -1.729086    0.208083   -1.038308
 C         -3.104083    0.348598   -1.156934
 C         -3.922480   -0.794984   -1.233512
 C         -5.344746   -1.023060   -1.302761
 H         -1.467695   -3.211610   -1.000246
 H         -1.123373    1.107558   -0.975071
 H         -3.548385    1.331935   -1.220412
 O         -6.541607   -3.184113   -1.365496
 N         -4.238872   -3.062183   -1.194601
 C         -3.997841   -4.487741   -1.177097
 H         -3.393413   -4.796146   -2.038469
 H         -3.482005   -4.787653   -0.256976
 H         -4.969677   -4.981109   -1.224042
 C         -6.410325   -0.101062   -1.392287
 C         -6.268492    1.281987   -1.919751
 C         -7.801165   -0.250896   -1.050632
 O         -5.285803    1.865587   -2.382415
 N         -7.537305    1.876393   -1.858094
 C         -8.460713    0.990993   -1.335334
 C         -8.574933   -1.272098   -0.464338
 C         -7.808817    3.222096   -2.312387
 C         -9.801730    1.207100   -1.091732
 C         -9.922675   -1.061256   -0.212384
 H         -8.120700   -2.226847   -0.238944
 H         -8.528648    3.221671   -3.139540
 H         -8.206194    3.838697   -1.497341
 H         -6.863859    3.643934   -2.657574
 C        -10.569389    0.164066   -0.516546
 H        -10.259106    2.156013   -1.348220
 H        -10.492835   -1.862912    0.248197
 C        -11.979095    0.361743   -0.236845
 C        -12.702634    1.536783   -0.270171
 S        -13.017766   -1.009001    0.216365
 C        -14.080410    1.399064    0.062202
 H        -12.255887    2.495872   -0.506840
 C        -14.422302    0.041413    0.363927
 C        -15.067415    2.405408    0.121649
 C        -15.710575   -0.340440    0.712320
 C        -16.351867    2.023343    0.479590
 H        -14.813875    3.433952   -0.113794
 C        -16.689422    0.658359    0.768445
 H        -15.954485   -1.375581    0.932602
 N        -17.490772    2.805751    0.625525
 C        -18.096433    0.636966    1.077157
 C        -18.563368    1.987569    0.965619
 C        -17.567733    4.230718    0.375959
 C        -18.978642   -0.389550    1.426578
 C        -19.891079    2.328940    1.181401
 H        -16.614364    4.698876    0.633105
 H        -17.801261    4.453428   -0.673075
 H        -18.339220    4.672118    1.011659
 C        -20.308434   -0.046304    1.651799
 H        -18.636080   -1.416382    1.514777
 C        -20.780496    1.295551    1.533891
 H        -20.249363    3.348493    1.080506
 S        -21.620549   -1.139059    2.098402
 C        -22.189727    1.388629    1.809003
 C        -22.756616    0.192173    2.118867
 H        -22.744521    2.320282    1.773694
 H        -23.792554   -0.002667    2.364536
 C          0.340404   -1.178274   -0.845940
 S          1.389178    0.247655   -0.998165
 C          1.088876   -2.316416   -0.597323
 C          2.830706   -0.721275   -0.708608
 C          2.488840   -2.101475   -0.513990
 H          0.642370   -3.293870   -0.456050
 C          4.137048   -0.266516   -0.659852
 C          3.503189   -3.052698   -0.260611
 C          5.144567   -1.212421   -0.410621
 H          4.378647    0.782620   -0.801786
 C          4.810148   -2.597809   -0.220339
 H          3.246742   -4.094430   -0.098592
 C          6.566596   -1.108707   -0.278387
 N          5.981208   -3.313547   -0.003197
 C          7.454822   -0.026165   -0.358649
 C          7.056536   -2.434247   -0.009541
 C          6.055224   -4.733845    0.276822
 C          8.801761   -0.287360   -0.158629
 H          7.095661    0.976945   -0.567273
 C          8.400781   -2.693158    0.198676
 H          7.016685   -5.123659   -0.065619
 H          5.944794   -4.947484    1.347356
 H          5.267486   -5.255538   -0.272344
 S         10.116157    0.884064   -0.190861
 C          9.293444   -1.601565    0.125903
 H          8.771724   -3.688577    0.419948
 C         11.307595   -0.377245    0.167012
 C         10.706294   -1.609396    0.303870
 C         12.722911   -0.052994    0.288020
 H         11.263792   -2.517714    0.503139
 C         13.607044   -0.962448    0.914117
 C         13.245574    1.157614   -0.212531
 C         14.942449   -0.624919    1.017469
 H         13.242759   -1.897408    1.323820
 C         14.592779    1.486215   -0.093947
 H         12.587460    1.854667   -0.722263
 C         15.479765    0.604516    0.542089
 N         15.955881   -1.398285    1.572303
 H         14.952767    2.427444   -0.479271
 C         16.922118    0.578532    0.789264
 C         17.178929   -0.761230    1.458724
 C         15.785548   -2.697157    2.191403
 C         17.914953    1.508707    0.557039
 O         18.222857   -1.232627    1.892410
 H         15.114418   -2.630035    3.054774
 H         15.375934   -3.417866    1.474921
 H         16.768440   -3.033418    2.522432
 C         17.625329    2.968008    0.240547
 C         19.378410    1.411768    0.586689
 O         16.549328    3.548082    0.146147
 N         18.844613    3.606065    0.127700
 C         19.892271    2.706095    0.304987
 C         20.298511    0.362336    0.735066
 C         18.986246    5.021795   -0.147133
 C         21.250235    2.975941    0.207109
 C         21.667922    0.619841    0.631691
 H         19.946733   -0.635785    0.945260
 H         19.532659    5.519755    0.661271
 H         19.519835    5.183137   -1.090567
 H         17.983727    5.444048   -0.220679
 C         22.140952    1.910249    0.380187
 H         21.610189    3.977696   -0.003332
 H         22.371304   -0.198297    0.755071
 H         23.209712    2.093600    0.312053
