       128
S0: Total Energy = -5313.21752848
 C         -5.844066   -2.279651   -1.023413
 C         -3.603229   -1.908772   -0.870826
 C         -2.235282   -2.096580   -0.783934
 C         -1.358723   -1.021470   -0.538582
 C         -1.954006    0.249629   -0.379204
 C         -3.324420    0.457628   -0.470251
 C         -4.183612   -0.620369   -0.733624
 C         -5.634885   -0.790773   -0.814465
 H         -1.317245    1.100901   -0.162244
 H         -3.726250    1.451426   -0.351934
 O         -6.885194   -2.903176   -1.191312
 N         -4.592525   -2.869110   -1.065755
 C         -4.408158   -4.294464   -1.296665
 H         -3.810147   -4.466184   -2.195379
 H         -3.914942   -4.766590   -0.442943
 H         -5.401384   -4.723264   -1.429753
 C         -6.671725    0.118521   -0.773365
 C         -6.473123    1.613127   -0.952337
 C         -8.116254   -0.054991   -0.617972
 O         -5.441963    2.241730   -1.158265
 N         -7.724605    2.202335   -0.911530
 C         -8.702418    1.236193   -0.688439
 C         -8.960570   -1.140244   -0.336203
 C         -7.920368    3.633407   -1.092831
 C        -10.063161    1.420708   -0.520990
 C        -10.323596   -0.935619   -0.163670
 H         -8.553463   -2.136534   -0.266393
 H         -8.570664    3.828779   -1.949335
 H         -8.361199    4.082567   -0.198934
 H         -6.936315    4.065993   -1.273477
 C        -10.925884    0.338996   -0.255667
 H        -10.948222   -1.792626    0.065623
 C        -12.366649    0.516106   -0.089101
 C        -13.084250    1.659546    0.158247
 S        -13.435037   -0.902836   -0.190547
 C        -14.495878    1.455663    0.291004
 H        -12.624182    2.632228    0.263819
 C        -14.854560    0.086243    0.125081
 C        -15.487951    2.420267    0.551200
 C        -16.174352   -0.352369    0.202371
 C        -16.802405    1.980422    0.638197
 H        -15.218170    3.464730    0.670031
 C        -17.157382    0.604252    0.458302
 H        -16.431631   -1.398922    0.067574
 N        -17.956021    2.711912    0.897232
 C        -18.595577    0.527181    0.598039
 C        -19.053497    1.858038    0.857080
 C        -18.015814    4.146917    1.085495
 C        -19.502958   -0.529837    0.523594
 C        -20.400346    2.155320    1.029410
 H        -17.095389    4.491997    1.562979
 H        -18.145344    4.682606    0.136230
 H        -18.849315    4.394658    1.747503
 C        -20.852648   -0.234944    0.705670
 H        -19.167558   -1.544119    0.327279
 C        -21.315983    1.090607    0.955901
 H        -20.749356    3.167332    1.209044
 S        -22.198716   -1.375279    0.660452
 C        -22.749833    1.134282    1.100625
 C        -23.339910   -0.081567    0.970569
 H        -23.301636    2.048037    1.295010
 H        -24.394714   -0.314780    1.037311
 C          0.089315   -1.200988   -0.457974
 S          1.149024    0.222234   -0.583072
 C          0.820023   -2.349368   -0.281995
 C          2.584559   -0.771781   -0.375101
 C          2.236969   -2.146583   -0.226963
 H          0.366874   -3.325230   -0.175916
 C          3.904937   -0.330788   -0.349918
 C          3.242638   -3.115148   -0.045761
 C          4.901639   -1.291789   -0.172886
 H          4.152725    0.721042   -0.458418
 C          4.559922   -2.675537   -0.029410
 H          2.980094   -4.160576    0.080284
 C          6.342371   -1.210869   -0.086401
 N          5.728824   -3.414459    0.115771
 C          7.239824   -0.143949   -0.152110
 C          6.816716   -2.548866    0.105728
 C          5.797209   -4.845337    0.332504
 C          8.594821   -0.435003   -0.018034
 H          6.891182    0.873801   -0.300432
 C          8.167271   -2.839002    0.248915
 H          6.725214   -5.235811   -0.092722
 H          5.758973   -5.102894    1.398689
 H          4.963545   -5.332444   -0.179124
 S          9.924582    0.715084   -0.053746
 C          9.072885   -1.762789    0.184942
 H          8.527559   -3.849705    0.411837
 C         11.114817   -0.583739    0.191718
 C         10.499790   -1.805504    0.303325
 C         12.536826   -0.249376    0.237936
 H         11.044608   -2.727727    0.449961
 C         13.499792   -1.138742    0.753751
 C         13.017604    0.993488   -0.229831
 C         14.840844   -0.802176    0.804571
 C         14.359319    1.350652   -0.179189
 H         12.313263    1.697391   -0.660649
 C         15.303861    0.462159    0.356393
 N         15.907203   -1.584080    1.242127
 H         14.671808    2.317781   -0.539751
 C         16.762745    0.460681    0.492052
 C         17.100428   -0.906694    1.064982
 C         15.846075   -2.919534    1.818551
 C         17.708580    1.430531    0.243576
 O         18.187320   -1.366970    1.391085
 H         15.235843   -2.921094    2.725348
 H         15.427414   -3.633108    1.104026
 H         16.869132   -3.203906    2.064637
 C         17.361339    2.897969    0.052835
 C         19.174669    1.370296    0.152537
 O         16.267369    3.449462    0.086012
 N         18.551154    3.582277   -0.107536
 C         19.624994    2.696819   -0.075817
 C         20.117518    0.330682    0.148302
 C         18.614132    5.026353   -0.275158
 C         20.972971    2.964797   -0.263881
 C         21.468970    0.621168   -0.048440
 H         19.798325   -0.685807    0.314835
 H         19.208134    5.481322    0.521950
 H         19.055151    5.286160   -1.241279
 H         17.590214    5.396900   -0.226899
 C         21.904929    1.933586   -0.246328
 H         22.194899   -0.185676   -0.042704
 H         22.953313    2.172545   -0.392862
 F        -10.561469    2.680790   -0.618244
 F         13.121231   -2.358454    1.216601
 F         -1.743676   -3.353076   -0.942273
 F         21.389000    4.238396   -0.475477
       128
T1: Total Energy = -5313.18118179
 C         -5.899438   -2.783359   -1.549130
 C         -3.666053   -2.437780   -1.306158
 C         -2.304265   -2.568408   -1.125427
 C         -1.452693   -1.442397   -1.071299
 C         -2.074970   -0.159681   -1.211892
 C         -3.427276    0.003606   -1.394719
 C         -4.268624   -1.137906   -1.459069
 C         -5.658133   -1.326238   -1.602275
 H         -1.448914    0.724844   -1.160507
 H         -3.850463    0.991568   -1.515602
 O         -6.954113   -3.411109   -1.652084
 N         -4.647730   -3.401879   -1.365212
 C         -4.487615   -4.845200   -1.296034
 H         -3.854958   -5.209054   -2.110571
 H         -4.047629   -5.144357   -0.340640
 H         -5.485229   -5.275695   -1.389803
 C         -6.698804   -0.344560   -1.783945
 C         -6.518750    0.918365   -2.529632
 C         -8.034842   -0.366486   -1.335995
 O         -5.525864    1.352410   -3.115254
 N         -7.749156    1.602196   -2.485033
 C         -8.662629    0.853461   -1.776751
 C         -8.800902   -1.270494   -0.554203
 C         -7.960017    2.883110   -3.139658
 C         -9.979621    1.122839   -1.465825
 C        -10.109366   -0.971980   -0.259179
 H         -8.359754   -2.199143   -0.218371
 H         -8.734904    2.808279   -3.907825
 H         -8.248078    3.649630   -2.414830
 H         -7.012144    3.157417   -3.604091
 C        -10.758321    0.228021   -0.697756
 H        -10.677429   -1.675234    0.340549
 C        -12.140997    0.491755   -0.357146
 C        -12.911014    1.613513   -0.596617
 S        -13.086011   -0.748301    0.508598
 C        -14.247438    1.532437   -0.105414
 H        -12.531943    2.487114   -1.106438
 C        -14.508468    0.283948    0.535495
 C        -15.260728    2.509071   -0.193691
 C        -15.748315   -0.024738    1.085703
 C        -16.493404    2.204058    0.365150
 H        -15.066985    3.454854   -0.689294
 C        -16.751558    0.942933    0.997718
 H        -15.933172   -0.981835    1.564334
 N        -17.643008    2.981914    0.429801
 C        -18.127853    0.975620    1.436256
 C        -18.649840    2.252741    1.054050
 C        -17.792965    4.305452   -0.140179
 C        -18.936328    0.051002    2.099635
 C        -19.965850    2.618531    1.309307
 H        -16.839977    4.837540   -0.084765
 H        -18.119061    4.268621   -1.187462
 H        -18.526512    4.871496    0.438947
 C        -20.253142    0.419828    2.363559
 H        -18.550893   -0.920587    2.394845
 C        -20.781382    1.688028    1.977860
 H        -20.366875    3.580289    1.005577
 S        -21.479518   -0.552577    3.178632
 C        -22.165045    1.824884    2.356928
 C        -22.658072    0.730628    2.992423
 H        -22.753385    2.713833    2.155130
 H        -23.659905    0.584789    3.375218
 C         -0.020782   -1.557371   -0.883616
 S          1.004471   -0.105972   -1.028263
 C          0.743696   -2.669085   -0.588728
 C          2.454397   -1.035581   -0.677140
 C          2.141066   -2.412108   -0.463793
 H          0.319733   -3.653197   -0.451979
 C          3.755092   -0.548904   -0.603174
 C          3.164899   -3.333926   -0.164215
 C          4.769632   -1.463484   -0.309309
 H          3.976456    0.502178   -0.763092
 C          4.462999   -2.848639   -0.099046
 H          2.926742   -4.378217    0.010217
 C          6.197780   -1.327953   -0.147164
 N          5.643146   -3.535486    0.159317
 C          7.064286   -0.235941   -0.232243
 C          6.702128   -2.634695    0.156039
 C          5.741104   -4.948566    0.464985
 C          8.417265   -0.470989   -0.006344
 H          6.693253    0.757659   -0.465413
 C          8.050268   -2.867717    0.392511
 H          6.713704   -5.325905    0.140182
 H          5.623094   -5.146804    1.537844
 H          4.969851   -5.495237   -0.083271
 S          9.711449    0.719013   -0.046868
 C          8.923827   -1.766522    0.309062
 H          8.432969   -3.852719    0.639628
 C         10.924103   -0.520156    0.347088
 C         10.341921   -1.752665    0.507241
 C         12.331353   -0.137465    0.443462
 H         10.906281   -2.644160    0.743366
 C         13.284001   -0.946956    1.092322
 C         12.805876    1.072672   -0.108437
 C         14.610945   -0.566494    1.186552
 C         14.133341    1.472877   -0.017473
 H         12.109619    1.712457   -0.640514
 C         15.067281    0.664706    0.648080
 N         15.668940   -1.271640    1.754918
 H         14.442168    2.412408   -0.447612
 C         16.516217    0.717483    0.860284
 C         16.853055   -0.577313    1.582298
 C         15.606508   -2.547230    2.453787
 C         17.452811    1.682343    0.563179
 O         17.929532   -0.968939    2.015093
 H         14.941892   -2.481160    3.318994
 H         15.250813   -3.338354    1.788497
 H         16.619411   -2.774841    2.785874
 C         17.085596    3.114498    0.210337
 C         18.922362    1.649754    0.546565
 O         15.980196    3.639058    0.140160
 N         18.267590    3.808333    0.034912
 C         19.356262    2.957210    0.204782
 C         19.884753    0.638383    0.690638
 C         18.309799    5.230075   -0.272515
 C         20.705960    3.237775    0.050499
 C         21.237838    0.940599    0.525776
 H         19.578501   -0.363561    0.946163
 H         18.855289    5.775745    0.502044
 H         18.791912    5.404250   -1.238175
 H         17.277585    5.578286   -0.308853
 C         21.656303    2.236685    0.214621
 H         21.978675    0.156645    0.646423
 H         22.705438    2.485283    0.091388
 F        -10.519816    2.285876   -1.917243
 F         12.908688   -2.129988    1.643972
 F         -1.790835   -3.820720   -0.998688
 F         21.106046    4.493214   -0.271148
       128
S1: Total Energy = -5313.15691937
 C         -5.872663   -2.484929   -1.335337
 C         -3.623178   -2.154618   -1.149501
 C         -2.259584   -2.319426   -1.011234
 C         -1.387256   -1.214882   -0.887742
 C         -1.993895    0.072300   -0.903943
 C         -3.356915    0.262247   -1.041818
 C         -4.211295   -0.850374   -1.185323
 C         -5.639203   -1.021180   -1.286307
 H         -1.361484    0.946858   -0.788100
 H         -3.768346    1.260951   -1.069731
 O         -6.919527   -3.123548   -1.469092
 N         -4.617560   -3.109653   -1.250134
 C         -4.459487   -4.552015   -1.305114
 H         -3.857075   -4.849696   -2.168691
 H         -3.985534   -4.930694   -0.394711
 H         -5.461374   -4.972705   -1.398028
 C         -6.665434   -0.052995   -1.353510
 C         -6.462944    1.341081   -1.823101
 C         -8.066010   -0.164079   -1.036323
 O         -5.450392    1.899926   -2.252060
 N         -7.706332    1.988127   -1.754228
 C         -8.665698    1.112161   -1.280007
 C         -8.880660   -1.180770   -0.496191
 C         -7.892858    3.365396   -2.174904
 C        -10.004193    1.334015   -1.024475
 C        -10.218836   -0.934100   -0.247140
 H         -8.462228   -2.158952   -0.307201
 H         -8.602103    3.430775   -3.005483
 H         -8.256677    3.983110   -1.348592
 H         -6.916837    3.727239   -2.500154
 C        -10.838373    0.321069   -0.501755
 H        -10.819537   -1.734712    0.172704
 C        -12.248388    0.533508   -0.231752
 C        -12.989600    1.698789   -0.255006
 S        -13.271470   -0.858733    0.210979
 C        -14.364143    1.535164    0.080534
 H        -12.559306    2.660265   -0.494908
 C        -14.688237    0.170518    0.369732
 C        -15.362551    2.528468    0.148159
 C        -15.970517   -0.231886    0.715717
 C        -16.642063    2.127486    0.503578
 H        -15.121017    3.561580   -0.079136
 C        -16.961753    0.754646    0.781314
 H        -16.201392   -1.271885    0.926516
 N        -17.790182    2.892993    0.656307
 C        -18.367180    0.712606    1.090374
 C        -18.851783    2.057930    0.990393
 C        -17.886931    4.319467    0.418922
 C        -19.235672   -0.329174    1.431692
 C        -20.183180    2.379995    1.209584
 H        -16.936437    4.796463    0.669376
 H        -18.134249    4.546315   -0.625818
 H        -18.656716    4.746483    1.066323
 C        -20.569401   -0.005295    1.660237
 H        -18.879377   -1.351961    1.511174
 C        -21.059058    1.331225    1.553884
 H        -20.555156    3.395400    1.117758
 S        -21.866856   -1.118828    2.098052
 C        -22.468238    1.403684    1.830228
 C        -23.019275    0.196324    2.130280
 H        -23.035644    2.327887    1.803147
 H        -24.052520   -0.013834    2.374644
 C          0.047406   -1.366825   -0.747788
 S          1.094255    0.066463   -0.870972
 C          0.798914   -2.508075   -0.516417
 C          2.536351   -0.902179   -0.589462
 C          2.197223   -2.285179   -0.420155
 H          0.353806   -3.485864   -0.403197
 C          3.840933   -0.445138   -0.529060
 C          3.211872   -3.239631   -0.179571
 C          4.849650   -1.394591   -0.294228
 H          4.081558    0.606462   -0.652708
 C          4.517932   -2.783888   -0.128210
 H          2.955548   -4.284239   -0.037846
 C          6.270489   -1.290528   -0.161654
 N          5.690185   -3.501266    0.076971
 C          7.156211   -0.204064   -0.226165
 C          6.763257   -2.620728    0.082863
 C          5.767795   -4.926803    0.331678
 C          8.503762   -0.467405   -0.037851
 H          6.794004    0.801564   -0.415882
 C          8.108934   -2.880413    0.280180
 H          6.727055   -5.309327   -0.024677
 H          5.665582   -5.158003    1.399136
 H          4.976381   -5.439350   -0.220430
 S          9.815923    0.704276   -0.059437
 C          8.998653   -1.785863    0.219193
 H          8.483849   -3.878320    0.482081
 C         11.015059   -0.565972    0.263082
 C         10.411938   -1.800985    0.387514
 C         12.424551   -0.211778    0.350595
 H         10.966876   -2.708253    0.578616
 C         13.393830   -1.096771    0.867916
 C         12.894391    1.051079   -0.081455
 C         14.726395   -0.738453    0.954234
 C         14.226950    1.428206    0.002105
 H         12.187810    1.753325   -0.511218
 C         15.176594    0.543667    0.538781
 N         15.796861   -1.507141    1.399677
 H         14.530735    2.407725   -0.331638
 C         16.629725    0.564924    0.703035
 C         16.981325   -0.802197    1.260659
 C         15.750585   -2.852676    1.953865
 C         17.563355    1.557067    0.483318
 O         18.069094   -1.247306    1.604390
 H         15.119640   -2.881618    2.845875
 H         15.365019   -3.563818    1.218577
 H         16.773518   -3.118782    2.220017
 C         17.194815    3.021403    0.315886
 C         19.028107    1.520558    0.407215
 O         16.091358    3.554395    0.348356
 N         18.375112    3.727354    0.178668
 C         19.461542    2.858092    0.206493
 C         19.986580    0.494112    0.395387
 C         18.417213    5.175111    0.037240
 C         20.807305    3.148289    0.037576
 C         21.334941    0.807522    0.218128
 H         19.680440   -0.529568    0.541827
 H         18.997278    5.624639    0.847540
 H         18.862369    5.458759   -0.920232
 H         17.387344    5.529155    0.083121
 C         21.753570    2.129940    0.047381
 H         22.072868    0.011666    0.217735
 H         22.799866    2.386231   -0.083871
 F        -10.514965    2.568234   -1.290352
 F         13.027743   -2.331428    1.297945
 F         -1.759929   -3.586065   -0.999290
 F         21.207234    4.430831   -0.147652
