       125
S0: Total Energy = -6901.67490644
 C         22.806616    0.203705   -0.445253
 C         22.310297    1.450714   -0.190883
 C         20.880736    1.454115   -0.122185
 C         20.320902    0.201780   -0.327090
 C         18.902505   -0.000529   -0.296571
 C         18.099418    1.149892   -0.046414
 C         18.693769    2.493682    0.173315
 C         16.712717    1.041781   -0.000761
 H         16.139733    1.942953    0.192389
 H         23.843937   -0.084642   -0.548051
 H         22.935308    2.324559   -0.059003
 S         21.562636   -0.996200   -0.608094
 O         18.004028    3.491864    0.389867
 N         20.084870    2.569745    0.122061
 C         20.721123    3.870484    0.332843
 H         21.384568    3.832349    1.202629
 H         21.299731    4.158234   -0.550665
 H         19.930852    4.597472    0.506202
 C         18.265921   -1.234257   -0.493260
 C         16.879574   -1.343170   -0.447459
 H         18.839729   -2.134815   -0.686570
 C         16.076183   -0.192045   -0.197868
 C         16.284526   -2.686323   -0.666526
 C         14.660077   -0.394038   -0.169036
 O         16.972500   -3.685293   -0.881962
 N         14.892303   -2.762316   -0.615930
 C         14.097043   -1.646523   -0.373824
 S         13.425112    0.809458    0.109961
 C         14.255877   -4.062926   -0.826462
 C         12.676295   -1.643179   -0.311805
 C         12.150561   -0.391974   -0.059891
 H         13.673111   -4.347887    0.055259
 H         13.596932   -4.026785   -1.699838
 H         15.046548   -4.790794   -0.994153
 H         12.060232   -2.522104   -0.454031
 C         10.765473   -0.009657    0.065673
 C         10.224510    1.251226    0.237225
 S          9.486848   -1.214463    0.005366
 C          8.814697    1.260290    0.324968
 H         10.828464    2.150173    0.298835
 C          8.241130    0.006706    0.221255
 H          8.234444    2.164955    0.471559
 C          6.846534   -0.358465    0.266535
 C          6.292192   -1.618930    0.363125
 S          5.599382    0.880189    0.188993
 C          4.870513   -1.600040    0.382903
 H          6.889408   -2.519166    0.433373
 C          4.335529   -0.320717    0.303068
 N          4.049257   -2.719067    0.478116
 C          2.923760   -0.094319    0.312492
 C          2.657649   -2.620620    0.495409
 C          4.656222   -4.048004    0.563069
 C          2.092818   -1.249537    0.406764
 C          2.314922    1.167327    0.234839
 O          1.945926   -3.622453    0.579816
 H          5.261079   -4.247035   -0.327311
 H          5.288012   -4.120999    1.454016
 H          3.848267   -4.773410    0.626713
 C          0.708254   -1.118395    0.418490
 C          0.930376    1.298439    0.246029
 H          2.910071    2.071984    0.163692
 H          0.113149   -2.022949    0.491328
 C          0.099353    0.143088    0.338221
 C          0.365754    2.669683    0.158893
 C         -1.312540    0.369118    0.340245
 O          1.077684    3.671945    0.081453
 N         -1.025914    2.767727    0.168609
 C         -1.847382    1.648257    0.256434
 S         -2.577017   -0.832880    0.435444
 C         -1.632769    4.096644    0.082735
 C         -3.269019    1.667679    0.278751
 C         -3.823513    0.407420    0.377216
 H         -2.272138    4.165012   -0.803036
 H         -2.229864    4.300996    0.977238
 H         -0.824980    4.821263    0.008829
 H         -3.865487    2.570381    0.240967
 C         -5.218210    0.042970    0.425814
 C         -5.786759   -1.179965    0.730110
 S         -6.470949    1.221232    0.063483
 C         -7.198896   -1.177647    0.690699
 H         -5.201000   -2.053682    0.994931
 C         -7.745825    0.047087    0.355058
 H         -7.801175   -2.049845    0.921286
 C         -9.134602    0.415105    0.227780
 C         -9.677851    1.673694    0.065777
 S        -10.388734   -0.818622    0.261368
 C        -11.096736    1.658148   -0.026781
 H         -9.076441    2.573254    0.030178
 C        -11.641044    0.384065    0.068086
 N        -11.907699    2.776979   -0.190175
 C        -13.052625    0.162681    0.004658
 C        -13.297544    2.683038   -0.267481
 C        -11.290794    4.100299   -0.287181
 C        -13.872600    1.317300   -0.163685
 C        -13.670611   -1.093243    0.095423
 O        -13.999497    3.684761   -0.413783
 H        -10.739268    4.331340    0.629804
 H        -10.606335    4.138123   -1.140513
 H        -12.090214    4.824754   -0.425633
 C        -15.255774    1.190570   -0.235865
 C        -15.054060   -1.220051    0.023371
 H        -13.083996   -1.997137    0.224075
 H        -15.842723    2.094176   -0.364625
 C        -15.874163   -0.065628   -0.145291
 C        -15.628965   -2.585644    0.127496
 C        -17.285474   -0.286879   -0.209129
 O        -14.926600   -3.587352    0.274169
 N        -17.018614   -2.679211    0.049975
 C        -17.829380   -1.560336   -0.114379
 S        -18.540018    0.914578   -0.402705
 C        -17.635681   -4.002617    0.146953
 C        -19.249576   -1.576871   -0.212239
 C        -19.791611   -0.320272   -0.377119
 H        -18.322457   -4.039145    0.998385
 H        -18.185011   -4.234623   -0.771052
 H        -16.836628   -4.726912    0.288285
 H        -19.851619   -2.476218   -0.183425
 C        -21.184220    0.049454   -0.513276
 C        -21.724172    1.239352   -0.956549
 S        -22.465899   -1.075422   -0.087155
 C        -23.147065    1.250404   -0.962481
 H        -21.117245    2.076338   -1.285485
 C        -23.690281    0.072418   -0.526586
 H        -23.740590    2.098691   -1.284824
 H        -24.734426   -0.194464   -0.433788
       125
T1: Total Energy = -6901.62531259
 C         22.794066   -0.184880   -0.266381
 C         22.286114   -1.449154   -0.364749
 C         20.855636   -1.456301   -0.321181
 C         20.306795   -0.189223   -0.189870
 C         18.889460    0.012226   -0.128235
 C         18.075269   -1.154737   -0.208058
 C         18.657803   -2.514365   -0.347613
 C         16.688672   -1.048284   -0.156906
 H         16.106976   -1.962203   -0.221250
 H         23.834720    0.109688   -0.271862
 H         22.903624   -2.332587   -0.463646
 S         21.560181    1.027329   -0.118777
 O         17.958468   -3.526862   -0.416152
 N         20.049122   -2.588240   -0.398033
 C         20.673634   -3.904274   -0.537494
 H         21.263272   -3.949448   -1.458649
 H         21.324332   -4.109002    0.318569
 H         19.876062   -4.642832   -0.576383
 C         18.263816    1.260286    0.002830
 C         16.877642    1.367548    0.053722
 H         18.846376    2.173564    0.067612
 C         16.063028    0.200051   -0.026742
 C         16.294597    2.726518    0.193195
 C         14.648092    0.401780    0.032003
 O         16.992313    3.739264    0.264115
 N         14.902131    2.801006    0.240430
 C         14.095949    1.669749    0.161100
 S         13.401269   -0.819153   -0.046181
 C         14.277574    4.117062    0.378527
 C         12.675229    1.664443    0.204210
 C         12.137217    0.396104    0.107185
 H         13.625549    4.319898   -0.477031
 H         13.689909    4.164267    1.300953
 H         15.075261    4.855625    0.414512
 H         12.067627    2.553856    0.313443
 C         10.749583    0.008925    0.115198
 C         10.201034   -1.261344    0.154100
 S          9.474707    1.218706    0.069709
 C          8.790685   -1.273971    0.153192
 H         10.802792   -2.163057    0.192026
 C          8.219151   -0.012862    0.114054
 H          8.205515   -2.186770    0.184650
 C          6.827651    0.348562    0.104386
 C          6.268104    1.613475    0.062912
 S          5.580867   -0.895671    0.145712
 C          4.850983    1.595358    0.062800
 H          6.863307    2.517226    0.033261
 C          4.313196    0.309027    0.105564
 N          4.028049    2.714886    0.024505
 C          2.909625    0.083744    0.112335
 C          2.635401    2.615919    0.026507
 C          4.633203    4.046688   -0.021815
 C          2.071702    1.241649    0.072080
 C          2.300140   -1.186218    0.155330
 O          1.923836    3.619947   -0.008096
 H          5.250478    4.214340    0.866532
 H          5.252376    4.150870   -0.918519
 H          3.824429    4.773411   -0.048388
 C          0.691679    1.109166    0.073928
 C          0.922105   -1.320526    0.157861
 H          2.900069   -2.090047    0.187356
 H          0.092870    2.013544    0.042156
 C          0.079877   -0.162011    0.115742
 C          0.358068   -2.694298    0.205378
 C         -1.315461   -0.382537    0.118535
 O          1.070477   -3.696966    0.243012
 N         -1.034208   -2.796628    0.205679
 C         -1.865814   -1.683189    0.162413
 S         -2.576614    0.833722    0.068744
 C         -1.637569   -4.128560    0.253013
 C         -3.261499   -1.706879    0.156400
 C         -3.842450   -0.420245    0.106706
 H         -2.261476   -4.228331    1.147068
 H         -2.252694   -4.296365   -0.636958
 H         -0.829951   -4.856198    0.284539
 H         -3.859837   -2.607937    0.184770
 C         -5.193541   -0.078954    0.084837
 C         -5.782839    1.217806    0.029726
 S         -6.470222   -1.319016    0.122638
 C         -7.156587    1.216974    0.016925
 H         -5.183067    2.121102    0.000057
 C         -7.745795   -0.079045    0.061533
 H         -7.756263    2.119984   -0.023710
 C         -9.098477   -0.421921    0.059989
 C         -9.677923   -1.707305    0.105883
 S        -10.363615    0.829888   -0.007684
 C        -11.075604   -1.684344    0.087304
 H         -9.080024   -2.607981    0.150878
 C        -11.624367   -0.386466    0.026210
 N        -11.906359   -2.798711    0.123150
 C        -13.022150   -0.166365   -0.002577
 C        -13.298543   -2.697710    0.100364
 C        -11.302749   -4.129751    0.188827
 C        -13.862616   -1.324976    0.033978
 C        -13.633326    1.102514   -0.064446
 O        -14.010709   -3.700910    0.133941
 H        -10.669150   -4.300783   -0.687433
 H        -10.697553   -4.225450    1.096119
 H        -12.110298   -4.857951    0.206732
 C        -15.241698   -1.192210    0.008098
 C        -15.014573    1.233532   -0.090444
 H        -13.035376    2.007596   -0.093048
 H        -15.841022   -2.096501    0.037571
 C        -15.850828    0.075626   -0.054812
 C        -15.578563    2.606632   -0.155692
 C        -17.256554    0.300005   -0.086723
 O        -14.866973    3.611239   -0.186307
 N        -16.970896    2.703807   -0.180978
 C        -17.792908    1.583182   -0.147888
 S        -18.524941   -0.904375   -0.062097
 C        -17.576590    4.034649   -0.246782
 C        -19.213560    1.600508   -0.162871
 C        -19.769735    0.338153   -0.116527
 H        -18.186128    4.129296   -1.151003
 H        -18.203735    4.210721    0.632962
 H        -16.768079    4.761751   -0.271570
 H        -19.810467    2.503210   -0.191113
 C        -21.167382   -0.028802   -0.113870
 C        -21.738570   -1.260851    0.136580
 S        -22.417721    1.157330   -0.463228
 C        -23.158358   -1.256127    0.055524
 H        -21.156455   -2.141920    0.385538
 C        -23.669799   -0.024877   -0.254625
 H        -23.773559   -2.132515    0.226227
 H        -24.705295    0.263424   -0.375838
       125
S1: Total Energy = -6901.60725922
 C         22.778371   -0.258253   -0.348303
 C         22.262828   -1.523429   -0.375315
 C         20.833473   -1.520704   -0.323092
 C         20.290986   -0.243852   -0.257120
 C         18.877820   -0.031233   -0.198397
 C         18.054631   -1.196776   -0.210113
 C         18.629479   -2.565360   -0.280373
 C         16.671005   -1.079450   -0.156469
 H         16.082803   -1.991368   -0.167710
 H         23.820636    0.029323   -0.375528
 H         22.875291   -2.414176   -0.429851
 S         21.552233    0.967855   -0.259242
 O         17.925246   -3.576354   -0.291456
 N         20.020628   -2.649930   -0.334208
 C         20.637057   -3.975220   -0.406437
 H         21.218763   -4.074038   -1.328499
 H         21.293714   -4.136254    0.454413
 H         19.835459   -4.710376   -0.398518
 C         18.259390    1.227253   -0.131802
 C         16.876070    1.346708   -0.078808
 H         18.848805    2.138421   -0.120899
 C         16.050668    0.180471   -0.090473
 C         16.301394    2.713689   -0.011083
 C         14.643772    0.390720   -0.035260
 O         17.003781    3.725455    0.001748
 N         14.908701    2.799257    0.037556
 C         14.093602    1.672749    0.025326
 S         13.390329   -0.828254   -0.035816
 C         14.292352    4.124528    0.105186
 C         12.680915    1.679925    0.070405
 C         12.127139    0.404877    0.045943
 H         13.640113    4.283895   -0.759469
 H         13.705365    4.223285    1.024022
 H         15.093747    4.859855    0.100933
 H         12.078424    2.577738    0.120927
 C         10.751311    0.034384    0.074995
 C         10.186978   -1.242504    0.072208
 S          9.478874    1.255618    0.118875
 C          8.789631   -1.250425    0.103644
 H         10.786033   -2.146611    0.048359
 C          8.212865    0.023401    0.131346
 H          8.199199   -2.160360    0.105144
 C          6.839889    0.379378    0.159661
 C          6.272785    1.654985    0.171767
 S          5.583785   -0.868642    0.177633
 C          4.867902    1.639415    0.191709
 H          6.871247    2.556758    0.162573
 C          4.317667    0.343233    0.197313
 N          4.044350    2.757335    0.203234
 C          2.926112    0.124271    0.211757
 C          2.650190    2.660239    0.214685
 C          4.652077    4.088445    0.199932
 C          2.082551    1.287465    0.217015
 C          2.309952   -1.149585    0.218791
 O          1.943365    3.667488    0.222281
 H          5.285615    4.216336    1.083477
 H          5.257301    4.225612   -0.701980
 H          3.846269    4.818594    0.216146
 C          0.707796    1.155960    0.222674
 C          0.935190   -1.281638    0.225794
 H          2.909551   -2.054226    0.217871
 H          0.108345    2.060663    0.224636
 C          0.090921   -0.118415    0.224764
 C          0.367932   -2.654076    0.232465
 C         -1.299401   -0.336576    0.223182
 O          1.074850   -3.661349    0.236911
 N         -1.026325   -2.751519    0.233495
 C         -1.851061   -1.634408    0.225840
 S         -2.565166    0.876384    0.211070
 C         -1.633855   -4.082609    0.239756
 C         -3.253663   -1.650985    0.217886
 C         -3.823429   -0.372969    0.206907
 H         -2.258536   -4.207976    1.129979
 H         -2.248448   -4.221722   -0.655511
 H         -0.828068   -4.812875    0.249626
 H         -3.852336   -2.552569    0.216244
 C         -5.191957   -0.019295    0.188154
 C         -5.771114    1.258347    0.163063
 S         -6.459771   -1.252702    0.184983
 C         -7.164232    1.251878    0.139974
 H         -5.179041    2.167214    0.160159
 C         -7.733323   -0.028306    0.146947
 H         -7.763281    2.156044    0.118420
 C         -9.103463   -0.393618    0.124543
 C         -9.662145   -1.671819    0.145359
 S        -10.368063    0.843594    0.056048
 C        -11.070268   -1.662836    0.107375
 H         -9.059603   -2.569891    0.187467
 C        -11.623427   -0.375743    0.055789
 N        -11.887218   -2.787037    0.117273
 C        -13.024397   -0.165602    0.007216
 C        -13.280538   -2.699774    0.074361
 C        -11.271853   -4.113262    0.175663
 C        -13.854412   -1.332190    0.015411
 C        -13.645824    1.098176   -0.050232
 O        -13.982984   -3.711124    0.084901
 H        -10.623720   -4.268276   -0.692852
 H        -10.680284   -4.215950    1.091102
 H        -12.073478   -4.848261    0.171848
 C        -15.235044   -1.210805   -0.033017
 C        -15.026526    1.217769   -0.099373
 H        -13.055437    2.008722   -0.058218
 H        -15.826139   -2.120970   -0.025250
 C        -15.854104    0.051372   -0.091901
 C        -15.601534    2.586450   -0.160896
 C        -17.259767    0.264539   -0.146664
 O        -14.898982    3.597666   -0.167746
 N        -16.994270    2.672230   -0.211812
 C        -17.806954    1.544776   -0.205438
 S        -18.518000   -0.950784   -0.153903
 C        -17.610209    3.998380   -0.275812
 C        -19.225439    1.549697   -0.255332
 C        -19.772995    0.281536   -0.235716
 H        -18.194348    4.101382   -1.195867
 H        -18.264178    4.154977    0.587889
 H        -16.808279    4.733071   -0.266575
 H        -19.827850    2.447901   -0.303516
 C        -21.165347   -0.096144   -0.273389
 C        -21.721613   -1.361029   -0.244942
 S        -22.434629    1.118662   -0.369082
 C        -23.141852   -1.359118   -0.298442
 H        -21.127503   -2.266984   -0.186502
 C        -23.670703   -0.098020   -0.367602
 H        -23.745544   -2.259680   -0.285691
 H        -24.710866    0.194536   -0.417764
