        96
S0: Total Energy = -5396.73607094
 C         11.622359    0.403112    0.015028
 S         13.333316    0.044535    0.348998
 C         11.452000    1.764359   -0.223781
 C         13.748012    1.708558    0.160174
 C         12.648136    2.499766   -0.141099
 H         10.483525    2.192819   -0.460276
 C         14.924567    2.535490    0.206972
 C         13.063270    3.961050   -0.314069
 S         16.622883    2.365886    0.502397
 C         14.566249    3.846954   -0.060277
 C         12.379079    4.872146    0.729776
 C         12.765887    4.468901   -1.742808
 C         16.848408    4.084404    0.261444
 C         15.673878    4.735054   -0.027970
 H         12.746116    5.900681    0.638558
 H         11.294279    4.885327    0.575309
 H         12.577927    4.524473    1.748247
 H         11.686329    4.474928   -1.931037
 H         13.136861    5.492206   -1.869662
 H         13.243437    3.833646   -2.495226
 H         15.623041    5.803643   -0.208091
 H         17.841828    4.503442    0.349294
 C         10.598814   -0.613020    0.039805
 C         10.694726   -2.008056    0.061116
 S          8.915707   -0.095259    0.036254
 C          9.422021   -2.627427    0.058588
 C          8.357378   -1.750424    0.039538
 H          9.283038   -3.702540    0.062694
 C          6.950131   -2.058394    0.025781
 N          6.577908   -3.366575    0.040537
 N          5.301253   -3.643125    0.026818
 C          4.422013   -2.606570   -0.000656
 C          3.012384   -2.909093   -0.016097
 C          2.406559   -4.147821   -0.009852
 S          1.821197   -1.632899   -0.043353
 C          0.991641   -4.110586   -0.030693
 H          2.978137   -5.068680    0.006450
 C          0.501851   -2.800558   -0.055617
 N          4.793299   -1.304432   -0.012395
 N          6.072274   -1.026569    0.000857
 C          0.161918   -5.367627   -0.031435
 H          0.811080   -6.246964   -0.071448
 H         -0.454559   -5.454336    0.871839
 H         -0.513966   -5.414017   -0.893634
 C         11.971597   -2.807445    0.070208
 H         12.645425   -2.514586   -0.743267
 H         12.524645   -2.688993    1.010377
 H         11.750163   -3.872219   -0.047103
 C         -0.849271   -2.299065   -0.090025
 S         -2.268846   -3.363030    0.054055
 C         -1.250665   -0.970185   -0.216577
 C         -3.330500   -2.006027   -0.057945
 C         -2.645109   -0.804361   -0.198074
 H         -0.539387   -0.158006   -0.324117
 C         -4.739176   -1.744098   -0.053709
 C         -3.618642    0.369567   -0.299581
 S         -6.216057   -2.629776    0.062881
 C         -4.948399   -0.376130   -0.190992
 C         -3.429241    1.365852    0.866371
 C         -3.487790    1.099389   -1.655346
 C         -7.160279   -1.127665   -0.075609
 C         -6.309532   -0.030803   -0.203658
 H         -2.440009    1.833784    0.812349
 H         -4.182557    2.159866    0.816959
 H         -3.520577    0.863695    1.834398
 H         -4.244240    1.887574   -1.739438
 H         -2.500614    1.566282   -1.744481
 H         -3.618038    0.406011   -2.491937
 C         -8.601166   -1.112508   -0.034792
 H         -6.682623    0.982549   -0.309158
 C         -9.527099   -2.161500   -0.026087
 S         -9.414933    0.448939    0.008106
 C        -10.861239   -1.690577    0.005855
 C         -9.202092   -3.631926   -0.055486
 C        -10.983581   -0.317066    0.024135
 H        -11.724292   -2.346456    0.010850
 H         -8.582766   -3.899093   -0.919939
 H         -8.662561   -3.952304    0.844341
 H        -10.122827   -4.219517   -0.112666
 C        -12.192195    0.468196    0.053194
 N        -13.382325   -0.186478    0.072023
 N        -12.074667    1.817499    0.061275
 N        -14.476935    0.528901    0.093948
 N        -13.172465    2.531625    0.083953
 C        -14.357591    1.881031    0.097573
 C        -15.569981    2.672171    0.119050
 C        -16.872266    2.223102    0.137836
 S        -15.504771    4.420799    0.123485
 C        -17.839150    3.271705    0.156099
 H        -17.119753    1.167559    0.138540
 C        -17.234236    4.506186    0.150463
 C        -19.327648    3.047129    0.178619
 H        -17.719987    5.473725    0.161066
 H        -19.656930    2.480837   -0.700881
 H        -19.629219    2.474317    1.063807
 H        -19.871438    3.996170    0.190671
        96
T1: Total Energy = -5396.69408889
 C        -11.578993    0.418239    0.007143
 S        -13.313695    0.034060   -0.122967
 C        -11.397364    1.797737    0.100278
 C        -13.719508    1.709323   -0.049072
 C        -12.600173    2.523174    0.068673
 H        -10.413997    2.246759    0.193463
 C        -14.899252    2.530885   -0.064924
 C        -13.006353    3.995378    0.139710
 S        -16.617174    2.338188   -0.178230
 C        -14.525797    3.861601    0.041285
 C        -12.428170    4.800251   -1.045790
 C        -12.579356    4.635868    1.479519
 C        -16.829827    4.072429   -0.080248
 C        -15.637190    4.744902    0.032342
 H        -12.789153    5.834593   -1.018421
 H        -11.333690    4.822620   -0.996359
 H        -12.720870    4.358431   -2.003299
 H        -11.486982    4.657158    1.563670
 H        -12.944003    5.667280    1.543275
 H        -12.979673    4.075815    2.330285
 H        -15.576540    5.825591    0.105279
 H        -17.829813    4.483764   -0.112224
 C        -10.557552   -0.595597   -0.002741
 C        -10.652144   -1.993411   -0.001246
 S         -8.871232   -0.079206   -0.013507
 C         -9.382405   -2.612845   -0.000830
 C         -8.313344   -1.736293   -0.004240
 H         -9.243871   -3.687870    0.005118
 C         -6.911793   -2.045699   -0.002543
 N         -6.541938   -3.361212    0.004770
 N         -5.271706   -3.641213    0.007862
 C         -4.382975   -2.603068    0.002711
 C         -2.988593   -2.905983    0.007364
 C         -2.383499   -4.164781    0.021585
 S         -1.790307   -1.632081   -0.004121
 C         -0.989264   -4.147108    0.023835
 H         -2.970594   -5.075645    0.030137
 C         -0.465313   -2.821010    0.009886
 N         -4.753709   -1.291143   -0.007109
 N         -6.028209   -1.014455   -0.009342
 C         -0.168619   -5.407935    0.038433
 H         -0.824756   -6.282732    0.044970
 H          0.479811   -5.485767   -0.842601
 H          0.474492   -5.468745    0.924722
 C        -11.928246   -2.793567    0.006580
 H        -12.564619   -2.544754    0.864237
 H        -12.523467   -2.628053   -0.899903
 H        -11.701786   -3.862293    0.060632
 C          0.856216   -2.352944    0.005008
 S          2.289926   -3.437872    0.026534
 C          1.275174   -0.985406   -0.017096
 C          3.354468   -2.060144    0.005609
 C          2.637279   -0.824805   -0.017490
 H          0.557598   -0.172366   -0.032726
 C          4.717615   -1.804354    0.005037
 C          3.607974    0.356237   -0.037804
 S          6.208738   -2.702388    0.025990
 C          4.939451   -0.394627   -0.019229
 C          3.449812    1.196485   -1.324662
 C          3.441729    1.249226    1.211819
 C          7.151382   -1.174346    0.002685
 C          6.269653   -0.052368   -0.020919
 H          2.459549    1.663870   -1.354324
 H          4.203307    1.991032   -1.354969
 H          3.565595    0.577151   -2.219316
 H          4.196682    2.042957    1.215523
 H          2.452506    1.719845    1.214055
 H          3.548847    0.667314    2.132302
 C          8.557790   -1.136389    0.008483
 H          6.644689    0.965213   -0.037991
 C          9.519577   -2.183242    0.033291
 S          9.364282    0.447038   -0.017200
 C         10.830318   -1.696920    0.031191
 C          9.209733   -3.655437    0.060157
 C         10.939902   -0.308537    0.005659
 H         11.704935   -2.336806    0.048421
 H          8.629178   -3.936916    0.947010
 H          8.636533   -3.970905   -0.819983
 H         10.137784   -4.233713    0.075126
 C         12.133800    0.480813   -0.001602
 N         13.334384   -0.164709    0.016906
 N         12.004866    1.835402   -0.026939
 N         14.419632    0.558184    0.012734
 N         13.096818    2.554408   -0.031003
 C         14.288503    1.913624   -0.009952
 C         15.493426    2.712429   -0.012382
 C         16.800638    2.274826    0.007178
 S         15.415339    4.461591   -0.042214
 C         17.758886    3.331204   -0.001344
 H         17.056696    1.221552    0.027160
 C         17.145246    4.561090   -0.027602
 C         19.249242    3.118339    0.016196
 H         17.623744    5.532207   -0.039262
 H         19.560541    2.563821    0.909688
 H         19.577756    2.538595   -0.854856
 H         19.786049    4.071432    0.007803
        96
S1: Total Energy = -5396.67412797
 C        -11.582804    0.409932   -0.015091
 S        -13.325286    0.025917   -0.066358
 C        -11.395910    1.798790    0.037729
 C        -13.723454    1.704538   -0.015694
 C        -12.592989    2.521327    0.038032
 H        -10.408807    2.247039    0.076863
 C        -14.894771    2.525006   -0.008834
 C        -12.993609    3.995686    0.087362
 S        -16.617149    2.332970   -0.052095
 C        -14.515160    3.862207    0.049955
 C        -12.458865    4.768911   -1.138945
 C        -12.514541    4.667148    1.394114
 C        -16.821012    4.068929    0.010672
 C        -15.623301    4.744221    0.061503
 H        -12.817184    5.804264   -1.123613
 H        -11.363419    4.789505   -1.129403
 H        -12.787005    4.304114   -2.073714
 H        -11.419825    4.685628    1.435119
 H        -12.873339    5.701122    1.445155
 H        -12.883577    4.130127    2.273298
 H        -15.560626    5.826223    0.105253
 H        -17.820659    4.482518    0.006081
 C        -10.568594   -0.596368   -0.030523
 C        -10.662798   -2.001142   -0.052276
 S         -8.876717   -0.082119   -0.017571
 C         -9.399819   -2.620247   -0.054423
 C         -8.323504   -1.742118   -0.036836
 H         -9.260708   -3.694852   -0.067963
 C         -6.928938   -2.052359   -0.033837
 N         -6.557178   -3.372038   -0.042740
 N         -5.290023   -3.650291   -0.037460
 C         -4.398502   -2.608472   -0.024529
 C         -3.007897   -2.907223   -0.017317
 C         -2.394665   -4.160697   -0.014284
 S         -1.812343   -1.628124   -0.009000
 C         -0.996429   -4.130353   -0.005459
 H         -2.973864   -5.076480   -0.018518
 C         -0.486139   -2.807387   -0.003109
 N         -4.772861   -1.290763   -0.018764
 N         -6.041765   -1.016504   -0.022813
 C         -0.168211   -5.386509   -0.001180
 H         -0.818598   -6.265525   -0.010985
 H          0.487752   -5.448836   -0.878065
 H          0.468993   -5.455183    0.889040
 C        -11.940411   -2.797185   -0.069015
 H        -12.565244   -2.589781    0.808191
 H        -12.545507   -2.584129   -0.958759
 H        -11.716505   -3.867619   -0.070426
 C          0.843953   -2.325614    0.001077
 S          2.273375   -3.403430    0.029228
 C          1.255113   -0.971887   -0.014412
 C          3.334101   -2.033465    0.019424
 C          2.631256   -0.810551   -0.005085
 H          0.540037   -0.156700   -0.033739
 C          4.717740   -1.775011    0.026795
 C          3.603214    0.368733   -0.016924
 S          6.201778   -2.669469    0.054181
 C          4.933310   -0.382771    0.006191
 C          3.452356    1.213628   -1.301831
 C          3.431208    1.257903    1.234975
 C          7.144620   -1.151619    0.036731
 C          6.278539   -0.038763    0.011109
 H          2.462976    1.682740   -1.334829
 H          4.206782    2.007525   -1.325898
 H          3.571772    0.596965   -2.197860
 H          4.185895    2.051839    1.244788
 H          2.442028    1.728721    1.234273
 H          3.534125    0.672789    2.153917
 C          8.566561   -1.126940    0.044958
 H          6.652453    0.979295   -0.001944
 C          9.510240   -2.176059    0.085397
 S          9.381157    0.444911   -0.001051
 C         10.832589   -1.700809    0.079039
 C          9.190184   -3.645806    0.133033
 C         10.952633   -0.318713    0.034559
 H         11.700255   -2.349694    0.107284
 H          8.598725   -3.909578    1.018419
 H          8.623093   -3.972422   -0.747378
 H         10.113729   -4.230577    0.166257
 C         12.150805    0.467472    0.016120
 N         13.348162   -0.181183    0.041980
 N         12.025714    1.824059   -0.027136
 N         14.437246    0.535506    0.027089
 N         13.119806    2.537873   -0.042138
 C         14.310531    1.893710   -0.013983
 C         15.516113    2.687245   -0.029273
 C         16.823743    2.247003   -0.006847
 S         15.443670    4.437724   -0.082102
 C         17.784083    3.300507   -0.031535
 H         17.077064    1.193434    0.026348
 C         17.174604    4.532424   -0.072764
 C         19.273973    3.084009   -0.014563
 H         17.656330    5.501683   -0.098378
 H         19.586007    2.540669    0.885587
 H         19.599014    2.491505   -0.878376
 H         19.813490    4.035400   -0.037099
