       100
S0: Total Energy = -7425.90909127
 C          7.540038    0.621124   -0.422833
 S          6.150685    1.715144   -0.329853
 C          7.101814   -0.698858   -0.455182
 C          5.047923    0.375130   -0.338131
 C          5.700002   -0.855980   -0.407661
 H          7.798943   -1.528064   -0.525822
 C          3.604087    0.344966   -0.300867
 S          2.448663    1.640103   -0.210558
 C          3.000056   -0.911847   -0.334914
 C          4.439307   -3.339995    1.081181
 C          4.354258   -3.206363   -2.030019
 C          1.108970    0.486632   -0.217478
 C          1.590845   -0.813215   -0.286995
 H          3.567647   -4.004597    1.107621
 H          5.337712   -3.968154    1.060005
 H          4.452309   -2.759813    2.009757
 H          5.251206   -3.831578   -2.112152
 H          3.481200   -3.868654   -2.065670
 H          4.317404   -2.548607   -2.904692
 H          0.923986   -1.670073   -0.301466
 C          8.905025    1.091588   -0.419216
 C          9.433829    2.361732   -0.651589
 S         10.183405   -0.071979   -0.080544
 C         10.848979    2.372193   -0.569517
 C         11.418882    1.149803   -0.277698
 H         11.432829    3.272542   -0.734289
 C          8.643981    3.603774   -0.972748
 H          7.932841    3.437651   -1.789774
 H          8.070108    3.960346   -0.108229
 H          9.316332    4.412280   -1.274376
 C         12.803328    0.795988   -0.124540
 C         15.254080    0.752918    0.036195
 C         14.568734   -0.438359    0.231216
 C         17.024663   -0.482138    0.392499
 S         14.099617    2.023221   -0.287836
 S         15.722702   -1.705641    0.555391
 N         16.601621    0.739713    0.122423
 N         13.218954   -0.426426    0.145320
 C         18.423354   -0.800134    0.543751
 C         19.069552   -1.998735    0.823375
 S         19.572045    0.518030    0.353674
 C         20.486126   -1.830791    0.879437
 C         20.900101   -0.547465    0.649810
 H         21.165603   -2.651128    1.085874
 H         21.912622   -0.166026    0.637807
 C         18.407468   -3.332077    1.047129
 H         17.720153   -3.310966    1.902028
 H         17.828838   -3.655093    0.172749
 H         19.159576   -4.100502    1.247258
 C         -0.255050    0.944477   -0.156376
 S         -1.590983   -0.189835   -0.194226
 C         -0.729529    2.241030   -0.064470
 C         -2.766484    1.115614   -0.082505
 C         -2.140830    2.358220   -0.021639
 H         -0.076078    3.106820   -0.025525
 C         -4.153900    0.743729   -0.068972
 C         -2.834185    3.690482    0.079173
 S         -5.489295    1.939037    0.042832
 N         -4.548486   -0.517669   -0.137823
 H         -3.495963    3.872525   -0.776497
 H         -3.446379    3.764992    0.986354
 H         -2.099810    4.500297    0.107941
 C         -6.612032    0.604546   -0.010670
 C         -5.895418   -0.581628   -0.105170
 N         -7.961997    0.540810    0.023193
 S         -7.019827   -1.917924   -0.158378
 C         -8.348717   -0.718943   -0.044292
 C         -9.724420   -1.131916   -0.031930
 S        -10.992979    0.069537    0.056231
 C        -10.263967   -2.401082   -0.083079
 C        -12.242417   -1.171893    0.046665
 C        -11.680382   -2.445568   -0.042134
 H         -9.657211   -3.299635   -0.139442
 C        -13.621442   -0.750272    0.133900
 C        -12.439288   -3.746791   -0.075600
 S        -14.975243   -1.811010   -0.290250
 C        -14.100639    0.501119    0.502473
 H        -13.175827   -3.812657    0.733059
 H        -12.980024   -3.882805   -1.020574
 H        -11.750157   -4.589867    0.030614
 C        -16.117991   -0.548850    0.040650
 C        -15.507132    0.631865    0.454525
 H        -13.431703    1.297745    0.813439
 C        -17.567075   -0.545267   -0.030541
 S        -18.685302   -1.795411   -0.493952
 C        -18.208941    0.638753    0.317299
 C        -16.810122    3.390338   -0.358120
 C        -16.962072    2.434429    2.599000
 C        -20.032822   -0.722918   -0.219274
 C        -19.624771    0.517087    0.202248
 H        -17.700322    4.018636   -0.234970
 H        -15.931789    4.010099   -0.141830
 H        -16.756310    3.080004   -1.406918
 H        -16.086081    3.036569    2.868063
 H        -17.855027    3.043483    2.783559
 H        -16.997486    1.568727    3.268692
 H        -21.040510   -1.079566   -0.386724
 H        -20.327441    1.314528    0.422590
Si          4.375620   -2.212110   -0.428199
Si        -16.877214    1.896716    0.792559
       100
T1: Total Energy = -7425.86731881
 C         -7.524100   -0.758626   -0.052076
 S         -6.134226   -1.883946   -0.089266
 C         -7.049417    0.584280   -0.017837
 C         -5.007342   -0.541985   -0.057314
 C         -5.678062    0.726594   -0.020129
 H         -7.743065    1.419004    0.008169
 C         -3.614284   -0.517751   -0.060464
 S         -2.438517   -1.819450   -0.097394
 C         -2.989238    0.776309   -0.026286
 C         -4.372796    3.105321    1.599251
 C         -4.381698    3.191901   -1.513815
 C         -1.098507   -0.639223   -0.065653
 C         -1.612487    0.686015   -0.029913
 H         -3.498256    3.765063    1.645742
 H         -5.269094    3.734897    1.649130
 H         -4.360087    2.461385    2.484721
 H         -5.278433    3.822801   -1.523467
 H         -3.507588    3.853720   -1.528081
 H         -4.373686    2.598459   -2.433935
 H         -0.944871    1.542158   -0.006940
 C         -8.868176   -1.174824   -0.055571
 C         -9.441625   -2.474605   -0.089258
 S        -10.145196    0.061594   -0.010660
 C        -10.838689   -2.439753   -0.077953
 C        -11.400761   -1.162920   -0.036759
 H        -11.442084   -3.341910   -0.099321
 C         -8.671390   -3.766834   -0.132902
 H         -8.032169   -3.833489   -1.021352
 H         -8.024780   -3.888869    0.744306
 H         -9.360592   -4.615860   -0.156661
 C        -12.768340   -0.778544   -0.015322
 C        -15.226871   -0.679929    0.005180
 C        -14.523153    0.522812    0.036847
 C        -16.986471    0.621234    0.057411
 S        -14.087025   -2.002678   -0.043437
 S        -15.667775    1.840085    0.085185
 N        -16.572760   -0.634810    0.016147
 N        -13.178375    0.484743    0.026119
 C        -18.382404    0.973489    0.078194
 C        -19.020633    2.209027    0.119891
 S        -19.545562   -0.346867    0.047263
 C        -20.440488    2.066592    0.126028
 C        -20.866665    0.766970    0.090220
 H        -21.114328    2.916520    0.156420
 H        -21.884383    0.399480    0.086649
 C        -18.345564    3.554083    0.155178
 H        -17.705035    3.669112    1.038472
 H        -17.715278    3.720550   -0.727267
 H        -19.092125    4.352923    0.182794
 C          0.240484   -1.055270   -0.075044
 S          1.575612    0.103066   -0.043618
 C          0.749073   -2.367368   -0.106945
 C          2.766045   -1.200870   -0.072925
 C          2.140771   -2.466941   -0.106151
 H          0.102917   -3.239007   -0.129877
 C          4.134461   -0.826203   -0.059220
 C          2.859701   -3.788548   -0.137243
 S          5.495994   -2.007848   -0.080957
 N          4.518720    0.451955   -0.027369
 H          3.502399   -3.882094   -1.021038
 H          3.495738   -3.927228    0.745461
 H          2.140225   -4.611740   -0.160957
 C          6.596495   -0.654650   -0.043678
 C          5.855662    0.529953   -0.019432
 N          7.939800   -0.571996   -0.034652
 S          6.961866    1.883138    0.017706
 C          8.311445    0.698188   -0.002268
 C          9.676311    1.127081    0.014749
 S         10.964830   -0.057891   -0.019886
 C         10.198762    2.406735    0.054492
 C         12.196954    1.201138    0.039236
 C         11.612258    2.470237    0.067016
 H          9.578149    3.297025    0.081877
 C         13.581577    0.798510    0.058079
 C         12.350180    3.782592    0.119048
 S         14.917356    1.938128   -0.184360
 C         14.085744   -0.486788    0.230544
 H         13.065092    3.818670    0.949134
 H         12.911962    3.974988   -0.803380
 H         11.644580    4.608076    0.251076
 C         16.082814    0.661485   -0.046053
 C         15.493423   -0.581488    0.174023
 H         13.432394   -1.336051    0.405535
 C         17.530913    0.695995   -0.109557
 S         18.626058    2.024145   -0.364898
 C         18.194903   -0.515906    0.052981
 C         16.854250   -3.155156   -1.050592
 C         16.977392   -2.667662    2.020244
 C         19.993155    0.947313   -0.252742
 C         19.608190   -0.350976   -0.032611
 H         17.757453   -3.776202   -1.020450
 H         15.988833   -3.819065   -0.938704
 H         16.797235   -2.686826   -2.038803
 H         16.113611   -3.322111    2.187138
 H         17.882519   -3.279501    2.113566
 H         16.992452   -1.915966    2.816415
 H         20.994237    1.344511   -0.356406
 H         20.325672   -1.159634    0.064688
Si         -4.358286    2.087776    0.013144
Si         16.887088   -1.857981    0.318668
       100
S1: Total Energy = -7425.84771808
 C         -7.519414   -0.710085    0.063255
 S         -6.127797   -1.820956    0.072465
 C         -7.060277    0.623043    0.084912
 C         -5.012391   -0.480278    0.103018
 C         -5.675774    0.771003    0.106965
 H         -7.755136    1.457018    0.083269
 C         -3.598266   -0.454353    0.120272
 S         -2.433479   -1.753973    0.118442
 C         -2.982198    0.823762    0.139005
 C         -4.393366    3.173705    1.707979
 C         -4.357297    3.210961   -1.406798
 C         -1.090124   -0.586286    0.139834
 C         -1.593356    0.730609    0.149526
 H         -3.519668    3.834359    1.757216
 H         -5.290479    3.803480    1.734999
 H         -4.393601    2.543400    2.603306
 H         -5.254441    3.840400   -1.440160
 H         -3.483678    3.873461   -1.419097
 H         -4.335141    2.602446   -2.316801
 H         -0.926208    1.587228    0.163081
 C         -8.870054   -1.148025    0.034905
 C         -9.422612   -2.447393    0.013409
 S        -10.155281    0.072867    0.019455
 C        -10.825621   -2.430259   -0.014931
 C        -11.399711   -1.162341   -0.016360
 H        -11.417049   -3.340335   -0.034449
 C         -8.638824   -3.732384    0.019329
 H         -7.979809   -3.815731   -0.853507
 H         -8.009172   -3.825425    0.912580
 H         -9.318316   -4.589400    0.003277
 C        -12.770725   -0.787748   -0.042215
 C        -15.231494   -0.708395   -0.095831
 C        -14.535761    0.501006   -0.068733
 C        -17.001301    0.581187   -0.122384
 S        -14.079820   -2.023075   -0.083178
 S        -15.690986    1.810579   -0.081596
 N        -16.575474   -0.673400   -0.125117
 N        -13.192429    0.473113   -0.039474
 C        -18.397804    0.921881   -0.149228
 C        -19.048133    2.153207   -0.153113
 S        -19.550622   -0.409012   -0.184313
 C        -20.465793    1.998516   -0.184457
 C        -20.881554    0.694823   -0.203723
 H        -21.146830    2.843326   -0.192230
 H        -21.895955    0.319096   -0.228245
 C        -18.384752    3.504184   -0.128123
 H        -17.769719    3.643705    0.769746
 H        -17.731209    3.657500   -0.996033
 H        -19.138058    4.297193   -0.138322
 C          0.252949   -1.017495    0.140400
 S          1.591813    0.130581    0.148407
 C          0.749032   -2.331313    0.130512
 C          2.777777   -1.181801    0.135249
 C          2.140330   -2.444033    0.127532
 H          0.095709   -3.198032    0.124862
 C          4.140784   -0.817340    0.129706
 C          2.847791   -3.771697    0.116392
 S          5.501478   -2.007323    0.103775
 N          4.535888    0.465614    0.137763
 H          3.480666   -3.889047   -0.771791
 H          3.492018   -3.897935    0.995093
 H          2.121411   -4.589207    0.116817
 C          6.609118   -0.656731    0.102005
 C          5.864902    0.538327    0.122661
 N          7.942276   -0.579373    0.083161
 S          6.975062    1.888637    0.119269
 C          8.325764    0.697656    0.088051
 C          9.680772    1.114684    0.065578
 S         10.967066   -0.077887    0.021784
 C         10.213729    2.400383    0.068794
 C         12.206567    1.181514    0.006991
 C         11.618179    2.459045    0.036558
 H          9.594931    3.291713    0.093668
 C         13.580178    0.783435   -0.033365
 C         12.361197    3.768592    0.033657
 S         14.927681    1.940760   -0.047368
 C         14.083313   -0.521844   -0.069124
 H         13.021551    3.867431    0.903601
 H         12.982415    3.885343   -0.862489
 H         11.655277    4.603702    0.057794
 C         16.085464    0.650425   -0.101265
 C         15.484965   -0.612828   -0.107449
 H         13.424434   -1.384599   -0.067825
 C         17.527963    0.683583   -0.141098
 S         18.634492    2.028512   -0.150226
 C         18.185757   -0.546160   -0.181214
 C         16.845772   -2.942440   -1.745166
 C         16.932170   -2.999817    1.366880
 C         19.992608    0.937222   -0.207777
 C         19.598431   -0.378377   -0.218848
 H         17.743878   -3.567542   -1.815013
 H         15.974216   -3.607543   -1.760774
 H         16.804148   -2.307221   -2.636140
 H         16.061393   -3.664926    1.407031
 H         17.831401   -3.627238    1.362690
 H         16.942270   -2.398012    2.281647
 H         20.997437    1.337947   -0.229733
 H         20.311441   -1.195959   -0.253352
Si         -4.355356    2.131209    0.138104
Si         16.870417   -1.907467   -0.169015
