       128
S0: Total Energy = -10247.3937272
 C         10.074082   -0.803212   -0.172237
 C         10.299105    0.546282   -0.262766
 C         11.653710    0.938518   -0.007878
 C         12.485036   -0.184171    0.276315
 S         11.559278   -1.680034    0.242918
 H          9.521502    1.248620   -0.536754
 C         12.216775    2.236829   -0.067712
 C         13.864358   -0.086193    0.493603
 C         13.596347    2.334972    0.154073
 C         14.427176    1.210915    0.437675
 C         15.791592    1.605725    0.685684
 C         15.984039    2.944875    0.587166
 S         14.529693    3.830636    0.189979
 H         16.581908    0.909447    0.936270
 C         11.408648    3.436996   -0.345803
 C         11.621194    4.381722   -1.323156
 C         10.668396    5.430397   -1.270051
 C          9.728530    5.330637   -0.274206
 S         10.029287    3.868001    0.646667
 H         12.406700    4.327711   -2.067206
 C         14.673153   -1.287938    0.766695
 C         14.473471   -2.228028    1.750878
 C         15.425445   -3.277535    1.689871
 C         16.352229   -3.182419    0.681493
 S         16.038743   -1.723873   -0.242357
 H         13.698522   -2.169711    2.505706
 F         10.694666    6.444447   -2.146340
 F         15.410877   -4.287344    2.571250
 S         17.701525   -4.258537    0.348515
 S          8.376138    6.406380    0.047410
 C         16.942165   -5.479963   -0.799186
 H         17.736707   -6.184172   -1.060911
 H         16.128901   -6.016424   -0.306525
 H         16.581117   -4.987935   -1.704759
 C          9.125730    7.623321    1.206251
 H          9.945174    8.159942    0.724060
 H          8.329469    8.327973    1.461498
 H          9.476173    7.128230    2.114335
 H         16.909669    3.488290    0.726190
 C          8.803760   -1.486103   -0.327937
 C          8.520653   -2.801170   -0.685861
 S          7.333229   -0.566742   -0.046785
 C          7.122656   -3.041000   -0.746239
 C          6.341163   -1.947534   -0.439351
 H          6.708889   -4.005286   -1.024206
 C          4.905281   -1.833720   -0.405466
 S          3.810970   -3.172722   -0.747771
 C          2.501692   -2.031369   -0.446685
 C          1.105815   -2.378644   -0.528732
 C          0.525398   -3.584859   -0.858684
 S         -0.112139   -1.180966   -0.172353
 C         -0.894013   -3.578944   -0.844374
 H          1.101244   -4.467186   -1.119916
 C         -1.401764   -2.329365   -0.498549
 C          9.528886   -3.875123   -1.006298
 H         10.325526   -3.507307   -1.660453
 H         10.004749   -4.270936   -0.100592
 H          9.039544   -4.713845   -1.510305
 C         -1.699837   -4.803844   -1.194607
 H         -1.060461   -5.551841   -1.672621
 H         -2.139929   -5.270709   -0.304788
 H         -2.519372   -4.572714   -1.882273
 N          4.276579   -0.717097   -0.111346
 N          2.929177   -0.827930   -0.134411
 C         -2.770848   -1.866250   -0.384670
 C         -3.210061   -0.568788   -0.463904
 S         -4.108154   -2.981034   -0.044892
 C         -4.617600   -0.407682   -0.258981
 H         -2.547823    0.256615   -0.694542
 C         -5.265952   -1.656440   -0.026105
 C         -5.382421    0.784035   -0.321883
 C         -6.649270   -1.789543    0.135607
 C         -6.765692    0.650857   -0.160587
 C         -4.770825    2.105730   -0.544948
 C         -7.414115   -0.597867    0.072563
 C         -7.260715   -3.111285    0.358776
 S         -7.923589    1.975301   -0.143459
 C         -5.091921    3.023814   -1.518106
 S         -3.526007    2.734191    0.517454
 C         -8.821780   -0.436672    0.276405
 C         -6.939392   -4.029298    1.331932
 S         -8.505475   -3.740079   -0.703562
 C         -9.261301    0.860657    0.195458
 C         -4.327534    4.212736   -1.405024
 H         -5.822772    2.857579   -2.300326
 C         -3.429087    4.246068   -0.367402
 H         -9.484092   -1.262122    0.506620
 C         -7.703546   -5.218377    1.218959
 H         -6.208540   -3.862863    2.114111
 C         -8.602056   -5.251922    0.181400
 C        -10.630545    1.323856    0.306396
 F         -4.481394    5.227718   -2.266918
 S         -2.286230    5.520437    0.032356
 F         -7.549470   -6.233301    2.080912
 S         -9.744587   -6.526628   -0.218204
 C        -11.139224    2.576497    0.638640
 S        -11.920057    0.171091   -0.006797
 C         -3.275515    6.575417    1.169838
 C         -8.755427   -7.581177   -1.356206
 C        -12.558976    2.581835    0.652325
 C        -10.334827    3.806174    0.975201
 C        -13.138582    1.372092    0.335595
 H         -2.616843    7.394265    1.472070
 H         -4.148707    6.982309    0.656058
 H         -3.581208    6.011604    2.053722
 H         -7.881968   -7.987909   -0.842757
 H         -9.413947   -8.400158   -1.658421
 H         -8.450144   -7.017093   -2.240054
 H        -13.135349    3.466756    0.903361
 H         -9.517309    3.584574    1.668446
 H         -9.892187    4.261543    0.080686
 H        -10.975920    4.560128    1.441406
 C        -14.534972    1.023112    0.256268
 S        -15.844594    2.170217    0.531888
 N        -14.961626   -0.184759   -0.035108
 C        -16.939388    0.826565    0.208709
 N        -16.310931   -0.294886   -0.061660
 C        -18.377383    0.947064    0.238294
 C        -19.153581    2.055561    0.496227
 S        -19.377323   -0.454048   -0.087400
 C        -20.557807    1.803100    0.437621
 H        -18.735991    3.031963    0.722782
 C        -20.813969    0.489076    0.132205
 C        -21.612228    2.849693    0.680648
 H        -21.782337    0.017529    0.022937
 H        -21.525696    3.274979    1.687875
 H        -21.519942    3.679524   -0.030474
 H        -22.617092    2.430034    0.578478
       128
T1: Total Energy = -10247.3403781
 C         10.035643   -0.828579   -0.027848
 C         10.222142    0.506233   -0.297569
 C         11.581015    0.945446   -0.213211
 C         12.463050   -0.122701    0.125455
 S         11.577344   -1.626270    0.349384
 H          9.408146    1.162377   -0.580150
 C         12.103888    2.236812   -0.473360
 C         13.852261    0.021398    0.206828
 C         13.494553    2.381182   -0.387984
 C         14.375347    1.311620   -0.050125
 C         15.745183    1.753522    0.028373
 C         15.894556    3.074661   -0.241859
 S         14.389182    3.884784   -0.609046
 H         16.571657    1.103771    0.287244
 C         11.244885    3.383529   -0.815364
 C         11.350610    4.212460   -1.908432
 C         10.381218    5.246953   -1.891623
 C          9.532236    5.249517   -0.812619
 S          9.944466    3.906497    0.238124
 H         12.070902    4.083980   -2.707304
 C         14.712363   -1.127078    0.544894
 C         14.622370   -1.947973    1.644978
 C         15.590725   -2.983896    1.620787
 C         16.423843   -2.994396    0.529640
 S         15.996004   -1.658252   -0.524380
 H         13.914240   -1.812930    2.453671
 F         10.308930    6.153927   -2.876077
 F         15.677020   -3.883992    2.610363
 S         17.764172   -4.083855    0.204018
 S          8.187954    6.337363   -0.497817
 C         16.939557   -5.434558   -0.734774
 H         17.724555   -6.154724   -0.981444
 H         16.179792   -5.921416   -0.120255
 H         16.496641   -5.051394   -1.656507
 C          9.005533    7.687081    0.448500
 H          9.770495    8.174539   -0.159126
 H          8.218587    8.407071    0.689446
 H          9.440759    7.303091    1.373566
 H         16.814642    3.644543   -0.249543
 C          8.777328   -1.538808   -0.000786
 C          8.503566   -2.908953   -0.016931
 S          7.292272   -0.593651    0.050135
 C          7.113887   -3.171704   -0.005361
 C          6.313188   -2.042669    0.024217
 H          6.710667   -4.179085   -0.026390
 C          4.887836   -1.946478    0.041028
 S          3.801125   -3.340959    0.039580
 C          2.475971   -2.162310    0.067795
 C          1.108042   -2.498317    0.079432
 C          0.508393   -3.773968    0.070493
 S         -0.114635   -1.235839    0.110579
 C         -0.876963   -3.774034    0.085010
 H          1.094246   -4.687244    0.051990
 C         -1.423727   -2.447762    0.105360
 C          9.520198   -4.020841   -0.060251
 H         10.250722   -3.878009   -0.863535
 H         10.078564   -4.101008    0.880330
 H          9.021742   -4.980080   -0.227302
 C         -1.686642   -5.040581    0.076870
 H         -1.025807   -5.911571    0.053871
 H         -2.319701   -5.125567    0.968347
 H         -2.345817   -5.097485   -0.797607
 N          4.240637   -0.787395    0.061740
 N          2.915514   -0.897076    0.076518
 C         -2.751550   -2.007218    0.118037
 C         -3.181967   -0.656016    0.109676
 S         -4.162961   -3.091408    0.147364
 C         -4.567626   -0.474928    0.137292
 H         -2.476975    0.163733    0.055654
 C         -5.282072   -1.724067    0.139930
 C         -5.301406    0.763081    0.100615
 C         -6.661429   -1.821227    0.081037
 C         -6.688870    0.660877    0.040794
 C         -4.633282    2.069068    0.130587
 C         -7.395225   -0.583284    0.040239
 C         -7.335980   -3.128222    0.062404
 S         -7.814771    2.016224    0.044834
 C         -4.849974    3.141505   -0.706994
 S         -3.461086    2.481789    1.372502
 C         -8.790921   -0.404031    0.061985
 C         -7.172479   -4.167356    0.950023
 S         -8.447105   -3.575913   -1.220207
 C         -9.211631    0.925785    0.060796
 C         -4.070903    4.268986   -0.348449
 H         -5.511130    3.125111   -1.564858
 C         -3.259909    4.107962    0.748214
 H         -9.490619   -1.229811    0.100210
 C         -7.946010   -5.301293    0.596073
 H         -6.549905   -4.124087    1.835513
 C         -8.699868   -5.174863   -0.544463
 C        -10.563054    1.391159    0.065004
 F         -4.127855    5.409987   -1.048883
 S         -2.122416    5.261374    1.430136
 F         -7.935890   -6.415315    1.341096
 S         -9.814376   -6.343472   -1.238742
 C        -11.083108    2.695683    0.127586
 S        -11.863958    0.198126   -0.015922
 C         -3.176760    6.163595    2.638618
 C         -8.707486   -7.314559   -2.342147
 C        -12.493260    2.703513    0.114642
 C        -10.280935    3.967264    0.206221
 C        -13.079159    1.451330    0.043069
 H         -2.526020    6.902896    3.113608
 H         -3.995893    6.674747    2.128975
 H         -3.565562    5.482057    3.398191
 H         -7.927263   -7.812441   -1.763086
 H         -9.341590   -8.066384   -2.820005
 H         -8.264722   -6.674219   -3.107979
 H        -13.070176    3.621720    0.159447
 H         -9.623421    3.983676    1.083259
 H         -9.649371    4.109073   -0.678905
 H        -10.948692    4.830565    0.276278
 C        -14.470204    1.099530    0.012292
 S        -15.783219    2.276894    0.057879
 N        -14.897662   -0.145159   -0.054468
 C        -16.875212    0.894508   -0.022667
 N        -16.243191   -0.257938   -0.073908
 C        -18.312075    1.015041   -0.031733
 C        -19.091386    2.150653    0.016454
 S        -19.308979   -0.423688   -0.114159
 C        -20.494494    1.889152   -0.011723
 H        -18.675908    3.152379    0.070711
 C        -20.747617    0.541058   -0.081520
 C        -21.551474    2.960200    0.029979
 H        -21.714863    0.056012   -0.116129
 H        -21.472248    3.561457    0.943752
 H        -21.454988    3.647219   -0.819433
 H        -22.555190    2.526822   -0.000962
       128
S1: Total Energy = -10247.3209179
 C         10.033603   -0.840398    0.101770
 C         10.211764    0.523527   -0.050864
 C         11.568536    0.951369   -0.056493
 C         12.473734   -0.145848    0.083239
 S         11.602392   -1.666945    0.242799
 H          9.380269    1.205111   -0.179961
 C         12.077374    2.267815   -0.231849
 C         13.862187   -0.009645    0.040794
 C         13.471391    2.401129   -0.274022
 C         14.370968    1.303143   -0.137000
 C         15.744267    1.732711   -0.148731
 C         15.882076    3.076143   -0.294549
 S         14.357589    3.919636   -0.424259
 H         16.585107    1.059169   -0.040932
 C         11.201780    3.442104   -0.360169
 C         11.235344    4.409932   -1.339102
 C         10.276325    5.429485   -1.118697
 C          9.504495    5.287477    0.008231
 S          9.979978    3.819740    0.842176
 H         11.894281    4.389130   -2.198570
 C         14.742439   -1.184040    0.177074
 C         14.756408   -2.107844    1.196195
 C         15.710124   -3.134002    0.975986
 C         16.430907   -3.036688   -0.188369
 S         15.909726   -1.606325   -1.061174
 H         14.132950   -2.053477    2.080462
 F         10.140067    6.457744   -1.967818
 F         15.887864   -4.125381    1.860649
 S         17.724137   -4.086399   -0.749719
 S          8.192873    6.320240    0.558072
 C         16.797954   -5.349924   -1.714932
 H         17.548695   -6.039771   -2.110207
 H         16.106756   -5.895734   -1.069760
 H         16.259842   -4.885736   -2.544084
 C          9.090822    7.559480    1.579987
 H          9.799513    8.121508    0.968547
 H          8.328588    8.239084    1.970995
 H          9.605701    7.074832    2.412222
 H         16.803367    3.642622   -0.334908
 C          8.784747   -1.540320    0.152570
 C          8.504747   -2.916684    0.237882
 S          7.291154   -0.596804    0.100715
 C          7.124297   -3.179944    0.253698
 C          6.313113   -2.049687    0.184687
 H          6.722090   -4.186097    0.312225
 C          4.898843   -1.959553    0.178745
 S          3.807603   -3.352377    0.273583
 C          2.484722   -2.173917    0.194739
 C          1.111220   -2.507986    0.218890
 C          0.510294   -3.768473    0.304587
 S         -0.104696   -1.247055    0.140628
 C         -0.887569   -3.754879    0.307686
 H          1.086857   -4.685754    0.362490
 C         -1.413678   -2.442048    0.219688
 C          9.522391   -4.025348    0.302556
 H         10.189280   -4.020938   -0.567230
 H         10.151326   -3.952293    1.197614
 H          9.019368   -4.996120    0.330822
 C         -1.698246   -5.019323    0.393058
 H         -1.037318   -5.889733    0.429480
 H         -2.326728   -5.041585    1.291519
 H         -2.361111   -5.139262   -0.472003
 N          4.242918   -0.796842    0.101276
 N          2.925276   -0.912583    0.109820
 C         -2.753586   -1.982588    0.186885
 C         -3.172719   -0.653828    0.045322
 S         -4.157178   -3.060520    0.331909
 C         -4.565982   -0.465842    0.059848
 H         -2.467761    0.156199   -0.092477
 C         -5.277720   -1.705564    0.195527
 C         -5.297656    0.758659   -0.101680
 C         -6.661344   -1.809192    0.158426
 C         -6.685412    0.651750   -0.137520
 C         -4.631607    2.060671   -0.221421
 C         -7.392041   -0.586134   -0.002528
 C         -7.332611   -3.111945    0.279757
 S         -7.811948    2.001921   -0.263350
 C         -4.862394    3.035061   -1.168518
 S         -3.443107    2.607725    0.951137
 C         -8.790248   -0.401786    0.015789
 C         -7.149373   -4.060128    1.260924
 S         -8.465947   -3.682954   -0.932334
 C         -9.208254    0.919509   -0.117710
 C         -4.079963    4.194469   -0.947473
 H         -5.534454    2.924139   -2.010809
 C         -3.252833    4.154887    0.148640
 H         -9.490008   -1.217604    0.148237
 C         -7.926677   -5.223195    1.033360
 H         -6.511664   -3.930457    2.126983
 C         -8.701694   -5.208602   -0.100159
 C        -10.558755    1.384717   -0.143346
 F         -4.148117    5.251725   -1.767764
 S         -2.107955    5.376152    0.684438
 F         -7.900251   -6.259701    1.882133
 S         -9.823962   -6.440626   -0.659229
 C        -11.077609    2.691044   -0.210952
 S        -11.861802    0.192348   -0.078768
 C         -3.158490    6.430224    1.766873
 C         -8.729283   -7.517763   -1.672801
 C        -12.485913    2.701050   -0.203017
 C        -10.272888    3.961014   -0.280313
 C        -13.075013    1.447785   -0.133694
 H         -2.502504    7.216518    2.150306
 H         -3.970491    6.882074    1.193806
 H         -3.556764    5.851028    2.602624
 H         -7.944301   -7.958776   -1.055383
 H         -9.369201   -8.310934   -2.069004
 H         -8.293186   -6.955990   -2.501490
 H        -13.061960    3.619836   -0.245014
 H         -9.603066    4.069393    0.580754
 H         -9.653276    4.004040   -1.184091
 H        -10.938104    4.828864   -0.294736
 C        -14.463509    1.099700   -0.105894
 S        -15.778032    2.276594   -0.162067
 N        -14.893155   -0.147425   -0.034609
 C        -16.869583    0.893532   -0.077949
 N        -16.234226   -0.260043   -0.019147
 C        -18.304201    1.010028   -0.073577
 C        -19.087660    2.144073   -0.127433
 S        -19.298417   -0.431871    0.010187
 C        -20.489172    1.878477   -0.102656
 H        -18.674703    3.146719   -0.183173
 C        -20.739097    0.529264   -0.029618
 C        -21.549604    2.945799   -0.150539
 H        -21.705382    0.042180    0.003511
 H        -21.458181    3.635115    0.697564
 H        -21.469054    3.545121   -1.065450
 H        -22.551983    2.509212   -0.122012
