       110
S0: Total Energy = -7711.00516241
 C          0.476855   -1.139969   -0.389821
 C          0.713776   -2.439642   -0.805266
 S          1.981963   -0.324004   -0.038123
 C          2.078182   -2.786792   -0.814013
 H         -0.074533   -3.121014   -1.106636
 C          2.925534   -1.766095   -0.414896
 H          2.438108   -3.761569   -1.107510
 C          4.377846   -1.794254   -0.309637
 C          5.155589   -2.907845   -0.006144
 C          5.164440   -0.599909   -0.539979
 C          6.595423   -2.917775   -0.006104
 C          4.705876   -4.242439    0.506943
 C          6.617892   -0.609854   -0.540647
 N          4.650400    0.606586   -0.778292
 C          7.388472   -1.814963   -0.311145
 C          7.030591   -4.256498    0.508632
 N          5.861858   -4.963984    0.788158
 O          3.586590   -4.684933    0.701532
 N          7.148179    0.589426   -0.779914
 C          8.840108   -1.807105   -0.419696
 O          8.147662   -4.703742    0.702451
 C          5.839695   -6.305800    1.344628
 C          9.671230   -2.836440   -0.829972
 S          9.806926   -0.382078   -0.034448
 H          5.442017   -6.292022    2.363721
 H          5.209339   -6.951994    0.728756
 H          6.864788   -6.676152    1.354648
 C         11.040773   -2.509812   -0.822635
 H          9.296011   -3.803177   -1.131235
 C         11.299115   -1.217972   -0.395471
 H         11.817998   -3.201090   -1.130135
 S          5.906387    1.644557   -0.975285
 C         12.575230   -0.556960   -0.256036
 C         12.837052    0.757284    0.046295
 S         14.075893   -1.473648   -0.478434
 C         14.227477    1.076964    0.107091
 H         12.051728    1.486152    0.214759
 C         15.039780   -0.045967   -0.162583
 C         16.441182    0.058327   -0.154860
 C         17.072209    1.292246    0.124131
 S         17.622532   -1.201358   -0.460587
 C         18.505019    1.184493    0.083019
 C         18.934620   -0.070946   -0.213113
 H         19.176926    2.015425    0.268340
 H         19.954661   -0.419456   -0.305206
 C         14.847073    2.332718    0.390156
 C         16.249885    2.414167    0.393394
 C         14.230704    3.596115    0.689684
 S         16.782525    4.043164    0.765027
 C         15.116984    4.606234    0.914013
 H         13.156943    3.745744    0.736502
 C         14.829843    6.038121    1.249442
 H         13.748481    6.196876    1.300183
 H         15.260162    6.323042    2.217136
 H         15.238083    6.722050    0.495501
 C         -0.788530   -0.457610   -0.258102
 S         -2.302188   -1.365941   -0.420442
 C         -1.028737    0.871790   -0.007408
 C         -3.246885    0.084838   -0.155074
 C         -2.414077    1.209431    0.057119
 H         -0.233265    1.598991    0.117023
 C         -4.643432    0.211503   -0.135764
 C         -3.035340    2.463337    0.287458
 S         -5.835493   -1.049975   -0.373077
 C         -5.255235    1.464591    0.095515
 C         -4.432024    2.612402    0.310531
 S         -2.235462    3.996117    0.573482
 C         -7.159508    0.110158   -0.167363
 C         -6.678695    1.375634    0.071533
 C         -4.827058    3.971219    0.560258
 C         -3.782513    4.830874    0.722646
 C         -8.529327   -0.335715   -0.258395
 H         -7.330125    2.229775    0.221402
 H         -5.860450    4.297081    0.616829
 C         -3.824307    6.303592    0.995526
 S         -9.857127    0.764204    0.030095
 C         -9.004561   -1.594667   -0.585923
 H         -4.863850    6.639790    1.053257
 H         -3.333292    6.555177    1.943307
 H         -3.325219    6.877660    0.205552
 C        -11.052328   -0.503774   -0.247070
 C        -10.409477   -1.686437   -0.573655
 H         -8.357411   -2.428990   -0.834010
 C        -12.484459   -0.258285   -0.142470
 H        -10.943996   -2.597255   -0.798185
 C        -13.449438   -1.187987    0.232569
 C        -13.041153    1.042138   -0.457745
 C        -14.866487   -0.926799    0.238858
 C        -13.252278   -2.551161    0.822167
 C        -14.471277    1.301472   -0.453732
 N        -12.317730    2.110999   -0.791695
 C        -15.443896    0.281297   -0.126442
 C        -15.540338   -2.130959    0.826277
 N        -14.520055   -3.026277    1.146462
 O        -12.234101   -3.185643    1.040016
 N        -14.777274    2.555841   -0.788413
 S        -13.365856    3.343335   -1.069082
 C        -16.876235    0.556237   -0.207926
 O        -16.719560   -2.350299    1.038645
 C        -14.741588   -4.317134    1.775094
 S        -17.559495    2.123975    0.218826
 C        -17.884161   -0.297455   -0.612449
 H        -15.818691   -4.469757    1.843026
 H        -14.285074   -5.108004    1.174414
 H        -14.300819   -4.335229    2.776004
 C        -19.161125    1.576445   -0.118119
 C        -19.178080    0.281460   -0.568415
 H        -17.695452   -1.313056   -0.930459
 H        -19.998330    2.248631    0.017978
 H        -20.082233   -0.242783   -0.856933
       110
T1: Total Energy = -7710.96769445
 C          0.567661   -1.495324    0.582626
 C          0.814581   -2.779089    0.081595
 S          2.064595   -0.739297    1.115550
 C          2.149245   -3.153872    0.134064
 H          0.035051   -3.416399   -0.322549
 C          3.013136   -2.176439    0.681434
 H          2.510670   -4.109882   -0.209269
 C          4.425989   -2.223495    0.819289
 C          5.255699   -3.389458    0.666080
 C          5.191930   -1.026586    1.105724
 C          6.643227   -3.340369    0.517800
 C          4.868582   -4.830633    0.817739
 C          6.637373   -0.976546    0.951069
 N          4.658847    0.126967    1.487129
 C          7.404415   -2.120333    0.499730
 C          7.157619   -4.749234    0.575712
 N          6.041868   -5.570261    0.719232
 O          3.780737   -5.343270    1.026256
 N          7.159128    0.213410    1.220316
 C          8.749965   -1.978606    0.063485
 O          8.302031   -5.171026    0.548732
 C          6.096206   -7.013262    0.872061
 C          9.534528   -2.890774   -0.677614
 S          9.677391   -0.485607    0.315753
 H          5.737852   -7.308703    1.862536
 H          5.475864   -7.497355    0.112946
 H          7.136170   -7.317248    0.751165
 C         10.802323   -2.428204   -1.005054
 H          9.167854   -3.864261   -0.961245
 C         11.070058   -1.137030   -0.538455
 H         11.515443   -3.008852   -1.580674
 S          5.905181    1.225420    1.660249
 C         12.263376   -0.371441   -0.696701
 C         12.518891    0.923704   -0.281316
 S         13.677995   -1.065324   -1.517158
 C         13.821076    1.392019   -0.600495
 H         11.780245    1.522977    0.239350
 C         14.585104    0.414351   -1.284061
 C         15.901282    0.682695   -1.687382
 C         16.498555    1.938485   -1.421543
 S         17.010984   -0.378400   -2.536406
 C         17.845063    2.006960   -1.914491
 C         18.246067    0.858493   -2.524070
 H         18.480352    2.880010   -1.813439
 H         19.205796    0.648978   -2.977449
 C         14.408229    2.667132   -0.324521
 C         15.727587    2.912326   -0.738805
 C         13.831423    3.798426    0.345748
 S         16.232911    4.530959   -0.296080
 C         14.668771    4.869729    0.444238
 H         12.821899    3.813190    0.743035
 C         14.402076    6.202548    1.074663
 H         13.384946    6.224645    1.476978
 H         15.097067    6.408852    1.897507
 H         14.498762    7.020853    0.350998
 C         -0.677882   -0.810539    0.673196
 S         -2.185433   -1.611777    0.178506
 C         -0.923611    0.478023    1.118779
 C         -3.119599   -0.185270    0.578723
 C         -2.289750    0.855947    1.075136
 H         -0.133273    1.135527    1.464552
 C         -4.501151   -0.003354    0.458573
 C         -2.908030    2.081255    1.442038
 S         -5.684901   -1.155819   -0.126485
 C         -5.109331    1.221894    0.825606
 C         -4.292201    2.283139    1.327339
 S         -2.115506    3.507964    2.074649
 C         -6.996077    0.008888    0.122035
 C         -6.517673    1.198584    0.624765
 C         -4.685259    3.596106    1.756194
 C         -3.648544    4.371677    2.182886
 C         -8.354556   -0.354194   -0.194766
 H         -7.164679    2.039809    0.848212
 H         -5.710329    3.951185    1.746777
 C         -3.689232    5.779115    2.695388
 S         -9.661180    0.794462   -0.016261
 C         -8.832319   -1.561183   -0.679899
 H         -4.719783    6.146232    2.687632
 H         -3.312033    5.847842    3.722765
 H         -3.083709    6.453459    2.078051
 C        -10.857507   -0.388286   -0.544488
 C        -10.226715   -1.578786   -0.868388
 H         -8.194030   -2.412153   -0.891787
 C        -12.278735   -0.076005   -0.617882
 H        -10.763411   -2.443045   -1.230105
 C        -13.324343   -0.976962   -0.443868
 C        -12.730122    1.268647   -0.912807
 C        -14.715941   -0.645302   -0.613370
 C        -13.267546   -2.382420    0.073312
 C        -14.134476    1.600125   -1.085863
 N        -11.922601    2.318161   -1.066974
 C        -15.185632    0.612250   -0.968061
 C        -15.513899   -1.849260   -0.209981
 N        -14.586246   -2.813227    0.184947
 O        -12.315987   -3.077166    0.387013
 N        -14.337389    2.887687   -1.368765
 S        -12.869074    3.618284   -1.396346
 C        -16.579271    0.965948   -1.223725
 O        -16.719023   -2.023111   -0.178710
 C        -14.947174   -4.127762    0.687577
 S        -17.244689    2.540841   -0.793898
 C        -17.559280    0.190997   -1.813862
 H        -16.023510   -4.245265    0.561781
 H        -14.413725   -4.898873    0.126296
 H        -14.686887   -4.217895    1.746308
 C        -18.807151    2.098346   -1.377507
 C        -18.819660    0.833813   -1.907717
 H        -17.374106   -0.813189   -2.167826
 H        -19.624528    2.804726   -1.312498
 H        -19.697900    0.375333   -2.348184
       110
S1: Total Energy = -7710.95065269
 C          0.503373   -1.336888    0.309746
 C          0.748010   -2.651814   -0.090106
 S          2.011093   -0.518493    0.688657
 C          2.097715   -3.001230   -0.068556
 H         -0.036304   -3.334751   -0.399765
 C          2.955069   -1.976006    0.353673
 H          2.460220   -3.979249   -0.341570
 C          4.395436   -2.003346    0.465968
 C          5.204986   -3.162538    0.528784
 C          5.152255   -0.775397    0.499821
 C          6.620385   -3.142055    0.427587
 C          4.802513   -4.565081    0.859621
 C          6.599878   -0.753742    0.396981
 N          4.606009    0.436671    0.611067
 C          7.380722   -1.960267    0.251158
 C          7.109203   -4.530119    0.694263
 N          5.975033   -5.310018    0.922335
 O          3.704305   -5.051895    1.085412
 N          7.119258    0.474352    0.432408
 C          8.787447   -1.893733   -0.065050
 O          8.244269   -4.976314    0.757458
 C          6.007646   -6.717641    1.273534
 C          9.599817   -2.887029   -0.621455
 S          9.739440   -0.415456    0.153679
 H          5.608725   -6.871815    2.280597
 H          5.409569   -7.298245    0.565658
 H          7.047936   -7.041469    1.235796
 C         10.925974   -2.499534   -0.833903
 H          9.227426   -3.870593   -0.860025
 C         11.192637   -1.187699   -0.450873
 H         11.673940   -3.156883   -1.264791
 S          5.852766    1.542412    0.601282
 C         12.432600   -0.475341   -0.529336
 C         12.699671    0.835511   -0.183223
 S         13.893617   -1.282600   -1.134895
 C         14.048817    1.229910   -0.388197
 H         11.937197    1.499207    0.209113
 C         14.838341    0.174810   -0.909962
 C         16.200035    0.362579   -1.182388
 C         16.822386    1.613008   -0.943910
 S         17.346058   -0.801509   -1.824166
 C         18.215124    1.593010   -1.289289
 C         18.627182    0.386541   -1.765701
 H         18.874674    2.447367   -1.183555
 H         19.619610    0.107815   -2.094299
 C         14.660633    2.499230   -0.140803
 C         16.027078    2.663311   -0.422560
 C         14.066851    3.698667    0.378868
 S         16.553987    4.291256   -0.042384
 C         14.936190    4.742985    0.493362
 H         13.022071    3.780940    0.659780
 C         14.663248    6.128698    0.993423
 H         13.611037    6.218470    1.279298
 H         15.275180    6.371827    1.870444
 H         14.872683    6.885445    0.227790
 C         -0.746454   -0.660949    0.395978
 S         -2.258979   -1.518241    0.031207
 C         -0.993360    0.660702    0.747302
 C         -3.199036   -0.074306    0.354042
 C         -2.358497    1.017704    0.730582
 H         -0.197719    1.350444    1.006885
 C         -4.578813    0.080729    0.279695
 C         -2.980158    2.262841    1.023457
 S         -5.770206   -1.130451   -0.157904
 C         -5.194085    1.331470    0.573838
 C         -4.369265    2.440598    0.953041
 S         -2.182168    3.742641    1.503360
 C         -7.085823    0.037243    0.050997
 C         -6.598161    1.277162    0.437387
 C         -4.762726    3.777095    1.290534
 C         -3.717350    4.596104    1.608091
 C         -8.443215   -0.353734   -0.170662
 H         -7.248728    2.125813    0.616854
 H         -5.791661    4.120708    1.297925
 C         -3.757815    6.040047    2.005408
 S         -9.761212    0.785776    0.022243
 C         -8.928572   -1.595159   -0.572089
 H         -4.793468    6.391969    2.014839
 H         -3.336032    6.197071    3.005170
 H         -3.191373    6.668028    1.307596
 C        -10.962071   -0.441013   -0.380865
 C        -10.323291   -1.640866   -0.685311
 H         -8.287594   -2.444978   -0.780463
 C        -12.386527   -0.157613   -0.401196
 H        -10.863435   -2.527668   -0.978594
 C        -13.413738   -1.088099   -0.222436
 C        -12.872873    1.185024   -0.642011
 C        -14.808990   -0.785093   -0.375027
 C        -13.322433   -2.492741    0.289369
 C        -14.286057    1.487098   -0.799213
 N        -12.092795    2.259680   -0.753282
 C        -15.310767    0.469539   -0.712932
 C        -15.579065   -2.008192    0.026509
 N        -14.628947   -2.956482    0.404950
 O        -12.353319   -3.165235    0.601702
 N        -14.523326    2.778669   -1.030795
 S        -13.073578    3.551825   -1.029779
 C        -16.708824    0.787739   -0.975767
 O        -16.780129   -2.206167    0.071310
 C        -14.956856   -4.278757    0.909305
 S        -17.413774    2.355707   -0.578307
 C        -17.669923   -0.019591   -1.557795
 H        -16.034866   -4.409388    0.814684
 H        -14.431579   -5.040430    0.327518
 H        -14.663584   -4.371757    1.959083
 C        -18.962649    1.865017   -1.158874
 C        -18.943625    0.591067   -1.667351
 H        -17.459908   -1.023990   -1.896177
 H        -19.796762    2.553032   -1.110572
 H        -19.808804    0.104793   -2.103838
