       146
S0: Total Energy = -8441.01679692
 C         14.626001   -3.292617    0.369134
 C         13.258700   -2.990138    0.425125
 C         12.896922   -1.659156    0.102749
 C         13.900394   -0.713676   -0.262612
 C         15.265325   -1.015586   -0.317216
 C         15.627860   -2.346596    0.003936
 C         16.938918   -2.945771   -0.031817
 H         17.836540   -2.403829   -0.301872
 C         16.932518   -4.262754    0.294134
 S         15.338849   -4.878948    0.667824
 C         12.269917   -4.013890    0.803041
 C         12.258886   -4.815029    1.919026
 S         10.912730   -4.426884   -0.240134
 C         11.174231   -5.740792    1.950307
 C         10.349448   -5.664731    0.859446
 C         16.254588    0.010181   -0.692199
 C         16.276413    0.802115   -1.814349
 S         17.597316    0.435166    0.363825
 C         17.358679    1.731328   -1.839733
 C         11.574001    0.267326   -0.182180
 C          9.123826   -6.475003    0.558005
 H          9.228234   -7.044699   -0.373272
 H          8.945069   -7.187176    1.369425
 H          8.231238   -5.845541    0.458815
 C         19.389686    2.482780   -0.427994
 H         20.282375    1.856955   -0.309136
 H         19.578302    3.187058   -1.244063
 H         19.270295    3.061691    0.495736
 C         18.170490    1.666214   -0.738543
 S         13.194722    0.871952   -0.569420
 C         11.593580   -1.062488    0.144390
 H         10.703948   -1.608958    0.433274
 H         17.781251   -4.932877    0.341202
 C         10.442073    1.164856   -0.235932
 C         10.442767    2.535411   -0.426471
 S          8.805446    0.571672   -0.074987
 C          9.155461    3.109800   -0.406935
 H         11.349088    3.114936   -0.565219
 C          8.133867    2.197556   -0.210311
 H          8.976462    4.168139   -0.522653
 C          6.696571    2.435323   -0.141129
 C          6.062167    3.592164    0.318579
 C          5.758195    1.441951   -0.577727
 C          4.637623    3.791657    0.310936
 C          4.348369    1.639978   -0.586636
 C          3.714848    2.853997   -0.159355
 N          6.009936    0.209769   -1.066255
 N          3.772880    0.524030   -1.080572
 N          4.804020   -0.267088   -1.334568
 C          4.616540   -1.624156   -1.830673
 H          3.709185   -1.642665   -2.433290
 H          5.486574   -1.889875   -2.430100
 H          4.519116   -2.314827   -0.988430
 C          2.268588    3.021540   -0.248417
 C          1.540780    4.177848   -0.467456
 S          1.173828    1.645214   -0.113160
 C          0.145749    3.979778   -0.505332
 H          2.005751    5.144764   -0.588077
 C         -0.234033    2.663649   -0.307254
 H         -0.563577    4.784596   -0.665478
 C          6.667811    4.771467    1.013284
 C          4.367419    5.091224    1.003296
 H         17.533731    2.425655   -2.655510
 H         15.547331    0.707375   -2.611891
 H         12.997665   -4.728670    2.708425
 H         11.006566   -6.440493    2.763026
 N          5.609558    5.593126    1.390597
 O          3.312860    5.656321    1.240394
 O          7.831696    5.038664    1.263369
 C          5.793286    6.838557    2.114785
 H          6.211221    6.645891    3.107125
 H          6.475022    7.494245    1.566635
 H          4.815331    7.310234    2.211548
 C         -1.569264    2.113000   -0.268519
 C         -1.956129    0.831474    0.025365
 S         -2.959978    3.150562   -0.629785
 C         -3.371714    0.619415   -0.023357
 H         -1.252330    0.052367    0.292245
 C         -4.075644    1.813499   -0.360041
 C         -4.087328   -0.569945    0.267357
 C         -5.470522    1.901239   -0.414707
 C         -5.482265   -0.482140    0.213022
 C         -3.419097   -1.836106    0.612679
 C         -6.186202    0.712323   -0.122379
 C         -6.138824    3.167014   -0.761391
 S         -6.598367   -1.818498    0.485094
 C         -3.624296   -2.633683    1.712291
 S         -2.235702   -2.584645   -0.454618
 C         -7.602046    0.500557   -0.170594
 C         -5.933761    3.963194   -1.862050
 S         -7.322742    3.916430    0.304628
 C         -7.988563   -0.780937    0.122934
 C         -2.838769   -3.824250    1.711895
 H         -4.305133   -2.363639    2.512314
 C         -2.031378   -3.954564    0.613175
 H         -8.305996    1.277955   -0.441918
 C         -6.719818    5.153399   -1.863412
 H         -5.252669    3.692345   -2.661589
 C         -7.527481    5.284840   -0.765013
 C         -9.324343   -1.330976    0.162988
 H         -2.867133   -4.561400    2.508124
 C         -1.079892   -5.065318    0.280901
 H         -6.691730    5.889455   -2.660658
 C         -8.479770    6.395429   -0.434506
 C         -9.703423   -2.657149    0.274003
 S        -10.732378   -0.297012    0.094586
 H         -0.048025   -4.705791    0.187209
 H         -1.103164   -5.819106    1.073843
 H         -1.341474   -5.560202   -0.662116
 H         -8.219150    6.891320    0.508246
 H         -8.456287    7.148481   -1.228130
 H         -9.511523    6.035469   -0.341334
 C        -11.100295   -2.848423    0.265506
 H         -8.992720   -3.473442    0.345358
 C        -11.828953   -1.677231    0.157828
 H        -11.566437   -3.820499    0.323600
 C        -13.277185   -1.499911    0.125002
 C        -14.218154   -2.400075   -0.379738
 C        -13.890456   -0.316033    0.654832
 C        -15.641127   -2.189519   -0.336782
 C        -13.984088   -3.656734   -1.158127
 C        -15.298778   -0.110731    0.698775
 N        -13.294426    0.758036    1.213035
 C        -16.252909   -1.064305    0.214437
 C        -16.281666   -3.315431   -1.087248
 N        -15.238401   -4.121483   -1.544037
 O        -12.948279   -4.226179   -1.461032
 N        -15.529678    1.083441    1.284197
 N        -14.313559    1.532811    1.553008
 C        -17.689691   -0.821603    0.330306
 O        -17.457102   -3.545395   -1.315365
 C        -15.427225   -5.322443   -2.338448
 C        -14.103016    2.848441    2.142921
 C        -18.704686   -1.729553    0.557735
 S        -18.361282    0.804663    0.213548
 H        -14.969762   -5.203487   -3.324800
 H        -14.968997   -6.180282   -1.838857
 H        -16.500528   -5.480387   -2.445321
 H        -14.957243    3.075429    2.779772
 H        -13.182321    2.816585    2.724428
 H        -14.018473    3.598529    1.351678
 C        -19.994892   -1.142212    0.624587
 H        -18.524188   -2.789076    0.668093
 C        -19.968439    0.215486    0.438633
 H        -20.903865   -1.706499    0.801054
 H        -20.800619    0.907295    0.432826
       146
T1: Total Energy = -8440.96796033
 C        -14.298685   -3.494537    0.235701
 C        -12.980619   -3.123865   -0.061169
 C        -12.621203   -1.784491    0.244549
 C        -13.579593   -0.902946    0.834106
 C        -14.892762   -1.274728    1.129052
 C        -15.252684   -2.612440    0.822708
 C        -16.505023   -3.275307    1.078449
 H        -17.357193   -2.787931    1.535118
 C        -16.505098   -4.579894    0.701480
 S        -14.987709   -5.103726    0.010576
 C        -12.038566   -4.082835   -0.658788
 C        -12.214326   -4.862027   -1.777304
 S        -10.478717   -4.440391    0.076872
 C        -11.114275   -5.726008   -2.053293
 C        -10.090271   -5.625188   -1.148841
 C        -15.836993   -0.315903    1.729516
 C        -15.682008    0.426869    2.874508
 S        -17.369935    0.083405    0.961907
 C        -16.778570    1.298240    3.145497
 C        -11.352643    0.200638    0.364628
 C         -8.790750   -6.373397   -1.124128
 H         -8.676501   -6.965544   -0.208198
 H         -8.745021   -7.058959   -1.975843
 H         -7.928840   -5.698257   -1.187301
 C        -19.067350    2.003069    2.172502
 H        -19.939288    1.338317    2.195227
 H        -19.126986    2.666691    3.040591
 H        -19.149702    2.620643    1.270068
 C        -17.778245    1.237426    2.211230
 S        -12.900986    0.706848    1.071980
 C        -11.381844   -1.126744   -0.013788
 H        -10.538374   -1.616846   -0.484276
 H        -17.318737   -5.288681    0.786492
 C        -10.276620    1.130942    0.245782
 C        -10.256125    2.478586    0.619205
 S         -8.721014    0.655622   -0.421860
 C         -9.048986    3.117929    0.366278
 H        -11.107096    2.976925    1.071519
 C         -8.061405    2.295971   -0.220342
 H         -8.868899    4.157734    0.587336
 C         -6.715891    2.606673   -0.557959
 C         -6.107865    3.906882   -0.612440
 C         -5.752849    1.571074   -0.864987
 C         -4.725480    4.133878   -0.712287
 C         -4.352101    1.797079   -0.960403
 C         -3.731168    3.087903   -0.755112
 N         -5.980546    0.264786   -1.064097
 N         -3.754935    0.624434   -1.215350
 N         -4.765382   -0.245356   -1.262477
 C         -4.565102   -1.635698   -1.628990
 H         -3.588531   -1.949127   -1.259412
 H         -5.355459   -2.227034   -1.166494
 H         -4.603371   -1.754086   -2.716696
 C         -2.337088    3.220985   -0.573506
 C         -1.592959    4.341634   -0.109583
 S         -1.223926    1.852608   -0.824817
 C         -0.236848    4.117395    0.020511
 H         -2.065682    5.284901    0.112310
 C          0.170499    2.816946   -0.331605
 H          0.458132    4.872425    0.372979
 C         -6.789451    5.239654   -0.742926
 C         -4.522536    5.600821   -0.925860
 H        -16.827342    1.948701    4.013066
 H        -14.813350    0.336394    3.517831
 H        -13.100133   -4.800447   -2.400062
 H        -11.080109   -6.400347   -2.903110
 N         -5.787063    6.187051   -0.895779
 O         -3.499399    6.235375   -1.130773
 O         -7.975658    5.527969   -0.761363
 C         -6.043949    7.599026   -1.114859
 H         -6.610862    7.748658   -2.038528
 H         -6.614582    8.013164   -0.279247
 H         -5.078653    8.099923   -1.190784
 C          1.477141    2.274635   -0.309749
 C          1.879105    0.986728   -0.646935
 S          2.863450    3.266567    0.194005
 C          3.270903    0.751994   -0.510160
 H          1.182366    0.236925   -1.000627
 C          3.972530    1.919410   -0.065837
 C          3.991473   -0.441699   -0.806680
 C          5.355741    1.977803    0.086826
 C          5.378233   -0.380224   -0.652110
 C          3.329632   -1.677157   -1.251467
 C          6.075124    0.785176   -0.210430
 C          6.021551    3.211522    0.537768
 S          6.491948   -1.724470   -0.898073
 C          3.622313   -2.450188   -2.349964
 S          2.032724   -2.426281   -0.324361
 C          7.473889    0.548540   -0.069394
 C          5.760148    3.956829    1.661778
 S          7.282654    3.988756   -0.413918
 C          7.866754   -0.729096   -0.393269
 C          2.815668   -3.620538   -2.459048
 H          4.380036   -2.174022   -3.075180
 C          1.904430   -3.761402   -1.445635
 H          8.167397    1.303132    0.281472
 C          6.563430    5.130388    1.771126
 H          5.025598    3.660547    2.402840
 C          7.440816    5.299545    0.732987
 C          9.191156   -1.295546   -0.356981
 H          2.904478   -4.336060   -3.270326
 C          0.904005   -4.858887   -1.236158
 H          6.496201    5.827447    2.600385
 C          8.428521    6.407274    0.516522
 C          9.577562   -2.595944   -0.640426
 S         10.583663   -0.325245    0.068313
 H         -0.123851   -4.477079   -1.217979
 H          0.979315   -5.586068   -2.050402
 H          1.072368   -5.391092   -0.292211
 H          8.227606    6.959531   -0.409393
 H          8.375204    7.115788    1.348790
 H          9.457410    6.032300    0.457884
 C         10.958810   -2.821484   -0.487442
 H          8.880540   -3.368853   -0.945881
 C         11.673189   -1.703103   -0.090861
 H         11.425095   -3.781068   -0.652081
 C         13.104191   -1.572645    0.157309
 C         13.968836   -2.573457    0.608324
 C         13.785154   -0.329688   -0.067073
 C         15.385779   -2.396866    0.784217
 C         13.630796   -3.940020    1.116199
 C         15.187891   -0.157784    0.106550
 N         13.270412    0.842583   -0.492392
 C         16.067876   -1.207780    0.527909
 C         15.920144   -3.655638    1.393691
 N         14.823465   -4.501140    1.564118
 O         12.561022   -4.523267    1.184412
 N         15.497022    1.115234   -0.218718
 N         14.327845    1.638189   -0.554129
 C         17.507850   -0.985982    0.643682
 O         17.055827   -3.955057    1.720829
 C         14.903751   -5.827839    2.149402
 C         14.200152    3.043512   -0.917067
 C         18.542182   -1.863862    0.386684
 S         18.161606    0.574081    1.142244
 H         14.360910   -5.861799    3.098584
 H         14.469201   -6.564310    1.468487
 H         15.957516   -6.049048    2.319587
 H         15.134132    3.360336   -1.379713
 H         13.368702    3.140368   -1.614385
 H         14.006771    3.640111   -0.021224
 C         19.831090   -1.307990    0.595601
 H         18.375593   -2.880716    0.061712
 C         19.783095   -0.006344    1.022331
 H         20.754248   -1.854388    0.437481
 H         20.608665    0.650983    1.262168
       146
S1: Total Energy = -8440.94979529
 C        -14.470759   -3.416685    0.084806
 C        -13.116952   -3.090379   -0.070864
 C        -12.767794   -1.731514    0.159642
 C        -13.773651   -0.790090    0.542953
 C        -15.121480   -1.117991    0.696776
 C        -15.471043   -2.474475    0.464437
 C        -16.759546   -3.096668    0.616934
 H        -17.650985   -2.560454    0.917059
 C        -16.742596   -4.430842    0.360788
 S        -15.163208   -5.032270   -0.081027
 C        -12.129759   -4.110212   -0.452551
 C        -12.188973   -5.002698   -1.497133
 S        -10.672210   -4.399438    0.494285
 C        -11.081789   -5.898508   -1.550343
 C        -10.168174   -5.710343   -0.546541
 C        -16.112163   -0.098514    1.083497
 C        -16.082680    0.750245    2.163322
 S        -17.531487    0.238767    0.098169
 C        -17.185484    1.653645    2.212903
 C        -11.480880    0.241295    0.264990
 C         -8.896159   -6.462304   -0.290598
 H         -8.902595   -6.956222    0.688538
 H         -8.764553   -7.233685   -1.055525
 H         -8.019230   -5.804391   -0.319706
 C        -19.322248    2.283154    0.901229
 H        -20.204376    1.632079    0.875990
 H        -19.474719    3.026731    1.689494
 H        -19.278760    2.813106   -0.057867
 C        -18.064609    1.512126    1.172134
 S        -13.092203    0.825917    0.723769
 C        -11.492972   -1.113149    0.002691
 H        -10.608643   -1.651789   -0.314745
 H        -17.576681   -5.119318    0.404357
 C        -10.376987    1.150170    0.202539
 C        -10.371979    2.517530    0.468672
 S         -8.765530    0.606768   -0.226754
 C         -9.121902    3.120674    0.312750
 H        -11.258372    3.063517    0.774394
 C         -8.100847    2.247628   -0.083551
 H         -8.947727    4.173074    0.469893
 C         -6.704530    2.517800   -0.306147
 C         -6.086540    3.782778   -0.493185
 C         -5.736437    1.451137   -0.342727
 C         -4.680577    3.992116   -0.543585
 C         -4.327889    1.658620   -0.389563
 C         -3.709868    2.959435   -0.400912
 N         -5.962307    0.126342   -0.313441
 N         -3.727640    0.456209   -0.387957
 N         -4.742733   -0.404914   -0.340586
 C         -4.533381   -1.839450   -0.423635
 H         -3.587951   -2.076063    0.064894
 H         -5.360991   -2.334142    0.084631
 H         -4.498242   -2.158615   -1.470275
 C         -2.292127    3.109861   -0.248450
 C         -1.553033    4.255774    0.101739
 S         -1.185258    1.732944   -0.419198
 C         -0.182426    4.050981    0.200627
 H         -2.024273    5.211521    0.265652
 C          0.218612    2.735240   -0.066212
 H          0.516917    4.837074    0.465836
 C         -6.738422    5.094024   -0.812621
 C         -4.454245    5.420598   -0.912559
 H        -17.326003    2.385382    3.002177
 H        -15.301295    0.714504    2.914793
 H        -12.993952   -5.000202   -2.223889
 H        -10.961986   -6.658713   -2.315739
 N         -5.714817    6.005210   -1.035146
 O         -3.417844    6.034792   -1.121686
 O         -7.917201    5.399762   -0.915312
 C         -5.944057    7.384530   -1.423023
 H         -6.490038    7.430900   -2.369918
 H         -6.525972    7.903348   -0.655932
 H         -4.969312    7.859662   -1.535278
 C          1.530268    2.199386   -0.058181
 C          1.930191    0.894064   -0.342933
 S          2.923615    3.219655    0.339646
 C          3.318829    0.673126   -0.245569
 H          1.224575    0.128546   -0.640396
 C          4.034038    1.866933    0.108268
 C          4.039196   -0.537423   -0.517052
 C          5.418313    1.943352    0.190485
 C          5.426431   -0.458377   -0.434440
 C          3.365851   -1.792305   -0.869675
 C          6.137581    0.734329   -0.081877
 C          6.094588    3.198840    0.545753
 S          6.541203   -1.807955   -0.661748
 C          3.645712   -2.640919   -1.916771
 S          2.071971   -2.471092    0.116130
 C          7.530671    0.516133    0.012677
 C          5.843178    4.024537    1.616331
 S          7.351252    3.902650   -0.468203
 C          7.929275   -0.782811   -0.270610
 C          2.834166   -3.810746   -1.939451
 H          4.394346   -2.416352   -2.668574
 C          1.930974   -3.878290   -0.910278
 H          8.233513    1.287686    0.301875
 C          6.649199    5.199546    1.635260
 H          5.116678    3.782764    2.384445
 C          7.518480    5.291719    0.579941
 C          9.250751   -1.320430   -0.269526
 H          2.911636   -4.579367   -2.701698
 C          0.928866   -4.954847   -0.618722
 H          6.590816    5.953991    2.413261
 C          8.504508    6.379895    0.276004
 C          9.651554   -2.627099   -0.544611
 S         10.647311   -0.317578    0.081717
 H         -0.097398   -4.568456   -0.621347
 H          0.997081   -5.737547   -1.380244
 H          1.101559   -5.419555    0.359405
 H          8.299228    6.859413   -0.688547
 H          8.453962    7.149612    1.051994
 H          9.533111    6.001246    0.241654
 C         11.031792   -2.826024   -0.447452
 H          8.956053   -3.415892   -0.810830
 C         11.756137   -1.685224   -0.096415
 H         11.506752   -3.780161   -0.612202
 C         13.186512   -1.530879    0.076253
 C         14.134309   -2.545812    0.315557
 C         13.804356   -0.234837   -0.008332
 C         15.551459   -2.321315    0.376346
 C         13.906734   -3.976998    0.677970
 C         15.210495   -0.020194    0.055443
 N         13.209870    0.961347   -0.185009
 C         16.166766   -1.075851    0.219216
 C         16.196956   -3.618754    0.757628
 N         15.159927   -4.533184    0.922772
 O         12.875178   -4.622964    0.792024
 N         15.440614    1.300860   -0.088307
 N         14.226224    1.813130   -0.220340
 C         17.600236   -0.805319    0.204547
 O         17.371910   -3.896799    0.930002
 C         15.348152   -5.915602    1.324463
 C         14.011512    3.248928   -0.329464
 C         18.628775   -1.602223   -0.263221
 S         18.258797    0.720517    0.801164
 H         14.873999   -6.100678    2.292681
 H         14.907463   -6.587173    0.582666
 H         16.421280   -6.092507    1.398639
 H         14.903438    3.690383   -0.772398
 H         13.140684    3.418138   -0.962533
 H         13.837915    3.675245    0.662757
 C         19.913729   -1.016644   -0.134243
 H         18.459374   -2.582521   -0.683936
 C         19.873417    0.227674    0.440320
 H         20.829695   -1.500901   -0.454172
 H         20.699970    0.890803    0.660152
