       130
S0: Total Energy = -9206.59914482
 C        -18.913332    1.684444    0.296995
 C        -18.444566    0.417650    0.422953
 C        -17.016494    0.321474    0.246876
 C        -16.430540    1.595786   -0.011775
 S        -17.662485    2.859048   -0.042357
 H        -19.078027   -0.432102    0.644309
 C        -16.198090   -0.828916    0.351588
 C        -15.052865    1.798241   -0.165116
 C        -14.821017   -0.626560    0.201957
 C        -14.234268    0.646278   -0.058014
 C        -12.816854    0.549910   -0.243038
 C        -12.313141   -0.720234   -0.122314
 S        -13.597090   -1.892021    0.235338
 H        -12.195939    1.402181   -0.490407
 C        -16.743313   -2.173631    0.607626
 C        -16.396351   -3.058514    1.599370
 C        -17.093354   -4.301365    1.528981
 C        -17.973408   -4.384351    0.482756
 S        -17.950635   -2.902374   -0.446054
 H        -15.675683   -2.817027    2.373293
 C        -14.505405    3.140660   -0.422497
 C        -14.866078    4.033820   -1.402305
 C        -14.161222    5.272051   -1.337374
 C        -13.261626    5.343943   -0.306816
 S        -13.275003    3.856997    0.613241
 H        -15.602306    3.801242   -2.164099
 C        -10.920512   -1.113007   -0.210072
 C        -10.340425   -2.344594   -0.504854
 C         -8.923480   -2.273936   -0.511510
 C         -8.409257   -1.025568   -0.225209
 S         -9.696270    0.115008    0.079844
 H         -8.300236   -3.133843   -0.736735
 C        -18.867899   -5.527003    0.103500
 H        -18.646184   -5.904582   -0.901963
 H        -18.730987   -6.351518    0.809890
 H        -19.926537   -5.241117    0.119704
 C        -12.353541    6.479022    0.062531
 H        -12.552867    6.850115    1.075053
 H        -12.500285    7.309426   -0.634918
 H        -11.297227    6.187144    0.022724
 H        -19.939575    2.017548    0.383632
 C        -11.075905   -3.624190   -0.812432
 H        -11.504079   -4.075928    0.090859
 H        -11.897148   -3.465292   -1.518343
 H        -10.391515   -4.356624   -1.250809
 C         -7.038664   -0.595652   -0.150603
 S         -5.689980   -1.743609   -0.415317
 N         -6.676739    0.644737    0.115971
 C         -4.590474   -0.415641   -0.139961
 C         -5.328424    0.733141    0.119287
 N         -3.242212   -0.327271   -0.135914
 S         -4.229108    2.060952    0.395331
 C         -2.880423    0.913068    0.131341
 H        -14.312344    6.085488   -2.040017
 H        -16.950627   -5.109811    2.239130
 C         -1.509884    1.342421    0.208705
 C         -0.995801    2.590479    0.496860
 S         -0.222882    0.201114   -0.092974
 C          0.420871    2.660691    0.494135
 H         -1.619250    3.450654    0.720312
 C          1.001874    1.428671    0.200257
 C          1.154749    3.940578    0.803965
 H          0.464056    4.679838    1.220301
 H          1.960083    3.786175    1.529151
 H          1.603828    4.381487   -0.094454
 C          2.393639    1.035584    0.117010
 C          2.893523   -0.239761    0.207540
 S          3.685845    2.213346   -0.187310
 C          4.311372   -0.334483    0.039715
 H          2.267798   -1.097694    0.420903
 C          4.905981    0.944055   -0.174456
 C          5.125502   -1.492784    0.124805
 C          6.284722    1.147525   -0.297182
 C          6.504251   -1.289238    0.002591
 C          4.571021   -2.840844    0.332671
 C          7.099000   -0.010517   -0.210679
 C          6.838800    2.495666   -0.505871
 S          7.724693   -2.558257    0.017752
 C          4.909958   -3.761935    1.294321
 S          3.360604   -3.524343   -0.747638
 C          8.517556   -0.104853   -0.374627
 C          6.499983    3.415483   -1.468773
 S          8.047933    3.181113    0.574592
 C          9.017098   -1.379984   -0.282379
 C          4.204408   -4.996202    1.179884
 H          5.629381   -3.551995    2.078494
 C          3.325729   -5.036592    0.129743
 H          9.144313    0.752910   -0.585608
 C          7.204669    4.650331   -1.355185
 H          5.781225    3.204199   -2.253203
 C          8.082540    4.692412   -0.304438
 C         10.409672   -1.773323   -0.355195
 H          4.339256   -5.829404    1.862329
 C          2.422760   -6.158383   -0.289398
 H          7.069815    5.482698   -2.038650
 C          8.984547    5.815195    0.114125
 C         10.992628   -2.999942   -0.665279
 S         11.631547   -0.554582   -0.017312
 H          2.642681   -6.502708   -1.307099
 H          2.552268   -7.007637    0.388503
 H          1.366691   -5.864110   -0.264205
 H          8.763611    6.160589    1.131245
 H          8.855123    6.663587   -0.564873
 H         10.040798    5.521478    0.090144
 C         12.409593   -2.932859   -0.643666
 C         10.260699   -4.271152   -1.013181
 C         12.921068   -1.692503   -0.320701
 H         13.034994   -3.789379   -0.875595
 H          9.812589   -4.739214   -0.128040
 H          9.454940   -4.096424   -1.733106
 H         10.952442   -4.996837   -1.451187
 C         14.291590   -1.268969   -0.207555
 S         15.641637   -2.418285   -0.456442
 N         14.651460   -0.034772    0.087103
 C         16.738892   -1.099483   -0.133752
 C         16.000265    0.047598    0.124914
 N         18.088529   -1.016702   -0.096481
 S         17.099198    1.365645    0.448193
 C         18.448604    0.216252    0.197063
 C         19.821538    0.641603    0.316658
 C         20.329733    1.889604    0.607990
 S         21.115597   -0.516477    0.076886
 C         21.756020    1.938915    0.643900
 H         19.703187    2.757057    0.792736
 C         22.304392    0.708960    0.375061
 C         22.547674    3.184815    0.939382
 H         23.355575    0.453268    0.335501
 H         22.304138    3.584680    1.931159
 H         23.622916    2.986090    0.911870
 H         22.332371    3.974911    0.209845
       130
T1: Total Energy = -9206.55134415
 C        -18.871202    1.715621    0.145263
 C        -18.418526    0.445456    0.303037
 C        -16.983394    0.343195    0.235778
 C        -16.372679    1.614690    0.025275
 S        -17.593234    2.884130   -0.094379
 H        -19.070918   -0.401722    0.473371
 C        -16.180368   -0.813642    0.401726
 C        -14.986395    1.810874   -0.021032
 C        -14.797410   -0.619942    0.356360
 C        -14.183217    0.651055    0.143937
 C        -12.763329    0.547958    0.070573
 C        -12.266190   -0.731929    0.231138
 S        -13.589125   -1.895166    0.483678
 H        -12.124002    1.400697   -0.121259
 C        -16.753072   -2.154426    0.616165
 C        -16.494643   -3.036847    1.636574
 C        -17.191866   -4.275492    1.514155
 C        -17.983834   -4.357520    0.399727
 S        -17.874917   -2.879998   -0.530118
 H        -15.837895   -2.796411    2.465722
 C        -14.414051    3.149643   -0.231376
 C        -14.712301    4.056626   -1.220185
 C        -14.003379    5.288032   -1.102196
 C        -13.162530    5.341976   -0.021924
 S        -13.237961    3.845923    0.879623
 H        -15.404451    3.837573   -2.025953
 C        -10.886436   -1.117058    0.215766
 C        -10.283306   -2.390945    0.275238
 C         -8.886065   -2.324000    0.217515
 C         -8.361397   -1.028419    0.117082
 S         -9.661768    0.154005    0.098629
 H         -8.257556   -3.208166    0.244877
 C        -18.851814   -5.496418   -0.046588
 H        -18.550155   -5.881185   -1.028233
 H        -18.779651   -6.317718    0.673082
 H        -19.906121   -5.203516   -0.119628
 C        -12.268165    6.465899    0.409562
 H        -12.523173    6.830458    1.411922
 H        -12.366953    7.303094   -0.288228
 H        -11.213904    6.164783    0.428831
 H        -19.899598    2.053124    0.154555
 C        -11.011143   -3.705600    0.381075
 H        -11.584724   -3.780872    1.312243
 H        -11.712801   -3.852418   -0.447673
 H        -10.296651   -4.533517    0.364548
 C         -7.022151   -0.613976    0.041542
 S         -5.656138   -1.801227    0.066630
 N         -6.640155    0.674743   -0.051613
 C         -4.556446   -0.445973   -0.055835
 C         -5.323781    0.760198   -0.103051
 N         -3.243434   -0.367041   -0.106336
 S         -4.229541    2.118306   -0.224046
 C         -2.857491    0.929892   -0.198238
 H        -14.108363    6.109813   -1.803432
 H        -17.113327   -5.081749    2.236601
 C         -1.529110    1.339154   -0.267088
 C         -1.000034    2.647830   -0.357956
 S         -0.223340    0.155044   -0.246884
 C          0.384569    2.720020   -0.406312
 H         -1.633946    3.528062   -0.384358
 C          1.003735    1.437128   -0.353121
 C          1.114965    4.032644   -0.501190
 H          0.400917    4.860843   -0.517318
 H          1.787949    4.186950    0.350106
 H          1.721210    4.096504   -1.412283
 C          2.369699    1.066475   -0.368753
 C          2.871504   -0.233217   -0.279680
 S          3.704793    2.238154   -0.510277
 C          4.282009   -0.332852   -0.325486
 H          2.225735   -1.094018   -0.160015
 C          4.907837    0.950813   -0.434553
 C          5.082275   -1.509069   -0.221042
 C          6.286474    1.142347   -0.426124
 C          6.465769   -1.313721   -0.211328
 C          4.501633   -2.855812   -0.124707
 C          7.086504   -0.032805   -0.316097
 C          6.872160    2.489351   -0.528411
 S          7.673988   -2.593651   -0.148808
 C          4.778253   -3.837748    0.797371
 S          3.344470   -3.459929   -1.307957
 C          8.505198   -0.130897   -0.359231
 C          6.641684    3.447507   -1.485748
 S          7.973603    3.118545    0.692738
 C          8.995630   -1.417423   -0.278999
 C          4.069031   -5.053384    0.571281
 H          5.452421   -3.683177    1.632828
 C          3.249008   -5.020423   -0.525970
 H          9.149631    0.731841   -0.475619
 C          7.343555    4.667794   -1.256054
 H          6.003066    3.274307   -2.345279
 C          8.111285    4.659905   -0.121601
 C         10.383703   -1.811044   -0.261447
 H          4.157558   -5.926808    1.209542
 C          2.359789   -6.103832   -1.059380
 H          7.286721    5.526112   -1.918071
 C          8.977264    5.754507    0.427280
 C         10.979870   -3.061863   -0.438836
 S         11.597896   -0.565256    0.015448
 H          2.630830   -6.388931   -2.083027
 H          2.444995   -6.993625   -0.428194
 H          1.306791   -5.798118   -1.072330
 H          8.659201    6.064191    1.430039
 H          8.923578    6.629292   -0.227934
 H         10.027943    5.448320    0.496782
 C         12.392283   -2.991293   -0.364784
 C         10.262758   -4.361434   -0.699380
 C         12.894785   -1.725981   -0.131394
 H         13.024223   -3.864901   -0.490703
 H          9.700210   -4.701422    0.178601
 H          9.553420   -4.279393   -1.529832
 H         10.983185   -5.145302   -0.950546
 C         14.258920   -1.293728    0.000223
 S         15.617341   -2.454982   -0.114929
 N         14.608877   -0.039156    0.214398
 C         16.702263   -1.113043    0.147737
 C         15.954587    0.048836    0.293761
 N         18.049231   -1.024371    0.227264
 S         17.041717    1.389908    0.557057
 C         18.399054    0.228064    0.441282
 C         19.766622    0.664416    0.577236
 C         20.263674    1.929788    0.807212
 S         21.069362   -0.501841    0.449700
 C         21.687919    1.985993    0.884698
 H         19.630306    2.804612    0.919930
 C         22.246303    0.743660    0.709005
 C         22.467959    3.250312    1.128300
 H         23.298566    0.489515    0.717983
 H         22.187004    3.712969    2.082122
 H         23.543459    3.052888    1.154465
 H         22.280448    3.990952    0.341439
       130
S1: Total Energy = -9206.53257789
 C        -18.878294    1.720072    0.106196
 C        -18.424504    0.447156    0.241533
 C        -16.990339    0.345908    0.168446
 C        -16.379302    1.620363   -0.022258
 S        -17.600925    2.891803   -0.116954
 H        -19.076577   -0.402545    0.400172
 C        -16.186648   -0.814300    0.315163
 C        -14.992945    1.817703   -0.066338
 C        -14.804305   -0.620266    0.272849
 C        -14.188510    0.654050    0.079560
 C        -12.770353    0.550886    0.001279
 C        -12.273179   -0.731043    0.142132
 S        -13.595461   -1.896997    0.378829
 H        -12.130133    1.404872   -0.181756
 C        -16.759846   -2.157797    0.508327
 C        -16.495296   -3.060073    1.509794
 C        -17.194788   -4.295345    1.368677
 C        -17.994760   -4.355264    0.258528
 S        -17.890840   -2.860334   -0.643591
 H        -15.832637   -2.836236    2.338852
 C        -14.421229    3.158795   -0.254292
 C        -14.735707    4.091309   -1.214801
 C        -14.023541    5.318456   -1.078859
 C        -13.163398    5.344817   -0.012520
 S        -13.223780    3.826893    0.852340
 H        -15.441116    3.892821   -2.014315
 C        -10.892389   -1.119814    0.123496
 C        -10.294040   -2.391412    0.144318
 C         -8.890090   -2.322757    0.098346
 C         -8.369063   -1.032060    0.045320
 S         -9.664967    0.149409    0.058628
 H         -8.263617   -3.209012    0.099844
 C        -18.867104   -5.484596   -0.203269
 H        -18.572090   -5.851633   -1.193702
 H        -18.791652   -6.319095    0.500719
 H        -19.921437   -5.189039   -0.264347
 C        -12.260043    6.456918    0.430425
 H        -12.496330    6.796536    1.446070
 H        -12.370355    7.311344   -0.244372
 H        -11.206014    6.154416    0.423159
 H        -19.906710    2.057146    0.123751
 C        -11.020844   -3.710077    0.199781
 H        -11.590288   -3.824550    1.129698
 H        -11.726270   -3.824507   -0.630918
 H        -10.306139   -4.536423    0.146699
 C         -7.018567   -0.605390   -0.007441
 S         -5.657573   -1.786090   -0.004947
 N         -6.645604    0.675447   -0.057997
 C         -4.558760   -0.427034   -0.076091
 C         -5.315093    0.763229   -0.094741
 N         -3.230135   -0.342566   -0.110695
 S         -4.219527    2.123466   -0.164095
 C         -2.855619    0.942520   -0.159042
 H        -14.139645    6.157395   -1.757678
 H        -17.111981   -5.115372    2.074972
 C         -1.510307    1.365540   -0.200086
 C         -0.986203    2.663330   -0.245028
 S         -0.215406    0.181287   -0.196424
 C          0.409276    2.734958   -0.271578
 H         -1.616000    3.546984   -0.254929
 C          1.017440    1.456037   -0.246130
 C          1.140276    4.049736   -0.317789
 H          0.426733    4.878562   -0.318330
 H          1.802743    4.179719    0.546052
 H          1.758143    4.141986   -1.218969
 C          2.383808    1.077342   -0.248468
 C          2.881230   -0.228011   -0.175164
 S          3.721042    2.243009   -0.347652
 C          4.283639   -0.332982   -0.203999
 H          2.228380   -1.085779   -0.074388
 C          4.920824    0.950800   -0.278393
 C          5.081310   -1.522112   -0.102680
 C          6.296235    1.136855   -0.234014
 C          6.459433   -1.333523   -0.057771
 C          4.489271   -2.862981   -0.042069
 C          7.092993   -0.050884   -0.127579
 C          6.890796    2.478990   -0.299332
 S          7.662777   -2.621709    0.006804
 C          4.766244   -3.875663    0.848242
 S          3.316075   -3.423625   -1.232608
 C          8.499285   -0.152995   -0.147220
 C          6.645119    3.473510   -1.216920
 S          8.022772    3.059349    0.919486
 C          8.994772   -1.452418   -0.075418
 C          4.046932   -5.077790    0.592000
 H          5.445109   -3.750414    1.684685
 C          3.217832   -5.005912   -0.497432
 H          9.149336    0.708260   -0.238536
 C          7.357854    4.680330   -0.958935
 H          5.991072    3.333730   -2.070762
 C          8.149429    4.627991    0.158497
 C         10.369440   -1.834596   -0.053154
 H          4.133338   -5.970213    1.203561
 C          2.317371   -6.066905   -1.055775
 H          7.292417    5.561711   -1.588879
 C          9.031561    5.698524    0.728231
 C         10.971398   -3.107935   -0.073141
 S         11.597441   -0.563216    0.009890
 H          2.578979   -6.322722   -2.089539
 H          2.400983   -6.975720   -0.452185
 H          1.266652   -5.753269   -1.051822
 H          8.733914    5.974284    1.746997
 H          8.970570    6.595803    0.104969
 H         10.081383    5.384290    0.767225
 C         12.375007   -3.032381   -0.044627
 C         10.245927   -4.425975   -0.126905
 C         12.889994   -1.742112   -0.000658
 H         13.004800   -3.916220   -0.058901
 H          9.625378   -4.588125    0.762615
 H          9.587841   -4.496006   -1.000685
 H         10.963559   -5.249377   -0.183499
 C         14.247667   -1.308566    0.040288
 S         15.606059   -2.483228    0.050489
 N         14.609939   -0.032094    0.078018
 C         16.697580   -1.122328    0.109623
 C         15.950777    0.056452    0.115550
 N         18.041513   -1.029758    0.149040
 S         17.047667    1.415393    0.176367
 C         18.401803    0.240648    0.187940
 C         19.769606    0.681312    0.238990
 C         20.278519    1.964305    0.278005
 S         21.065820   -0.501419    0.261157
 C         21.702943    2.019476    0.326002
 H         19.652009    2.851166    0.272210
 C         22.252730    0.760164    0.322170
 C         22.494395    3.299117    0.374954
 H         23.303868    0.502897    0.352194
 H         22.238331    3.890956    1.262089
 H         23.569288    3.098819    0.403403
 H         22.291508    3.925699   -0.501990
