       144
S0: Total Energy = -10937.4945412
 C         -5.509737   -1.569406   -0.511663
 C         -5.889416   -0.383867    0.059219
 C         -7.301405   -0.142081    0.022988
 C         -8.006873   -1.212748   -0.600623
 S         -6.898963   -2.471982   -1.138581
 H         -5.184081    0.301917    0.512831
 C         -8.016882    0.958384    0.557695
 C         -9.400589   -1.255944   -0.711942
 C         -9.410671    0.914201    0.448280
 C        -10.116224   -0.156919   -0.174897
 C        -11.528475    0.084604   -0.211268
 C        -11.908066    1.268697    0.362208
 S        -10.520280    2.168906    0.994518
 H        -12.233697   -0.594171   -0.675319
 C         -7.344023    2.100334    1.201622
 C         -7.572470    2.606963    2.460016
 C         -6.770199    3.744075    2.732878
 C         -5.932027    4.138223    1.719552
 S         -6.139386    3.053594    0.356137
 H         -8.263379    2.179663    3.176725
 C        -10.073005   -2.396683   -1.358516
 C         -9.842041   -2.901701   -2.617163
 C        -10.644044   -4.038144   -2.893260
 C        -11.484541   -4.433286   -1.882224
 S        -11.279919   -3.350443   -0.517009
 H         -9.149012   -2.473970   -3.331564
 F         -6.833716    4.378388    3.911816
 F        -10.578196   -4.670922   -4.073005
 C        -13.239790    1.813995    0.496346
 C        -13.620535    3.075626    0.878999
 S        -14.658344    0.834620    0.173801
 C        -15.032140    3.283789    0.905608
 H        -12.918760    3.860666    1.130844
 C        -15.763423    2.158947    0.513324
 C        -17.173351    1.874789    0.307060
 C        -17.659437    0.858853   -0.504499
 S        -18.514783    2.661760    1.133714
 C        -19.066168    0.702554   -0.456859
 H        -17.016104    0.253593   -1.133870
 C        -19.658162    1.596643    0.397477
 H        -19.611723   -0.031347   -1.039389
 H        -20.712735    1.717019    0.610425
 C         -4.179133   -2.117952   -0.641762
 C         -3.794105   -3.323969   -1.174680
 S         -2.772003   -1.240753   -0.073894
 C         -2.388957   -3.561424   -1.144118
 H         -4.489369   -4.044745   -1.586070
 C         -1.661984   -2.504156   -0.588611
 C         -1.806573   -4.805039   -1.688518
 O         -0.658829   -5.182934   -1.530794
 O         -2.716637   -5.509087   -2.396457
 C        -15.608417    4.586428    1.293074
 O        -16.777764    4.797149    1.566956
 O        -14.666081    5.554224    1.328482
 S        -12.651698   -5.747519   -1.899601
 S         -4.764812    5.452444    1.732662
 C        -11.649890   -7.157540   -1.271649
 H        -12.322553   -8.019263   -1.247332
 H        -10.815896   -7.366040   -1.944526
 H        -11.284772   -6.953811   -0.262886
 C         -5.769327    6.862731    1.109708
 H         -6.600411    7.070872    1.786291
 H         -5.096794    7.724486    1.083030
 H         -6.138773    6.659583    0.102392
 C         -2.250308   -6.757389   -2.940490
 H         -3.109225   -7.186681   -3.455800
 H         -1.429087   -6.585383   -3.640470
 H         -1.909883   -7.419865   -2.140849
 C        -15.126009    6.855818    1.734825
 H        -15.882934    7.227438    1.039881
 H        -15.549406    6.815368    2.741497
 H        -14.242510    7.493516    1.715614
 C         -0.249910   -2.228326   -0.391238
 S          0.993410   -3.435555   -0.114865
 C          0.277669   -0.949010   -0.246922
 C          2.204561   -2.201895    0.185546
 C          1.643659   -0.934179    0.066587
 H         -0.310282   -0.046529   -0.371816
 C          3.623474   -2.444434    0.377487
 H          2.207796   -0.019374    0.210081
 S          4.700039   -1.146857   -0.122220
 C          4.378216   -3.491718    0.914864
 C          6.128122   -1.990560    0.442953
 C          5.776312   -3.216213    0.953147
 C          3.828278   -4.758198    1.440056
 C          7.441938   -1.399050    0.330785
 H          6.489767   -3.918643    1.365075
 O          2.689596   -5.161336    1.279288
 O          4.757706   -5.451755    2.133031
 C          7.769085   -0.114906   -0.014307
 S          8.879713   -2.379597    0.659156
 C          4.324161   -6.720669    2.656033
 C          9.178369    0.145589   -0.030010
 H          7.024693    0.642068   -0.229795
 C          9.934647   -1.006086    0.337374
 H          3.499681   -6.581899    3.359537
 H          3.999893   -7.377781    1.845329
 H          5.194493   -7.136657    3.163042
 C          9.840904    1.368342   -0.301916
 C         11.327761   -1.004898    0.463536
 C         11.234195    1.369187   -0.175851
 C          9.116176    2.587776   -0.700708
 C         11.990159    0.217917    0.192200
 C         12.052785   -2.224338    0.862313
 S         12.290276    2.741823   -0.497582
 C          9.175112    3.829231   -0.110983
 S          8.076736    2.617824   -2.112420
 C         13.400207    0.478354    0.176409
 C         11.998309   -3.464450    0.269505
 S         13.086896   -2.255643    2.277804
 C         13.727151    1.761247   -0.169197
 C          8.377119    4.783499   -0.791941
 H          9.741490    4.056523    0.784083
 C          7.707575    4.319470   -1.897041
 H         14.144181   -0.279090    0.391903
 C         12.795782   -4.418742    0.951138
 H         11.435399   -3.690727   -0.628012
 C         13.460409   -3.955971    2.059705
 C         15.042649    2.356610   -0.282893
 F          8.288561    6.051764   -0.367611
 S          6.593367    5.199161   -2.933668
 F         12.888320   -5.685893    0.524371
 S         14.572169   -4.835812    3.098833
 C         15.396170    3.567562   -0.831917
 S         16.471296    1.524269    0.327118
 C          7.722369    5.882702   -4.215949
 C         13.438104   -5.530875    4.370418
 C         16.799562    3.826949   -0.772837
 H         14.686619    4.253834   -1.277971
 C         17.502058    2.806337   -0.176913
 H          7.088716    6.443059   -4.908818
 H          8.452821    6.556994   -3.764772
 H          8.227192    5.078746   -4.755617
 H         12.713922   -6.206485    3.911183
 H         14.069829   -6.091538    5.064800
 H         12.925813   -4.731921    4.910485
 C         17.485928    5.035783   -1.281768
 H         18.569910    2.759704   -0.014337
 O         18.686941    5.225969   -1.221384
 O         16.615781    5.911784   -1.826170
 C         17.195404    7.121084   -2.349187
 H         16.358778    7.697292   -2.743604
 H         17.703460    7.674982   -1.555901
 H         17.910619    6.889505   -3.142269
       144
T1: Total Energy = -10937.4450651
 C          5.492335   -1.840724    0.134209
 C          5.811454   -0.499203    0.047444
 C          7.209641   -0.228807    0.050334
 C          7.986136   -1.426829    0.128322
 S          6.950810   -2.849915    0.221001
 H          5.057244    0.273920   -0.033655
 C          7.861087    1.029546   -0.061344
 C          9.381130   -1.443195    0.084381
 C          9.257713    1.010713   -0.105732
 C         10.031513   -0.185830   -0.030326
 C         11.435308    0.086187   -0.025833
 C         11.748497    1.419224   -0.106246
 S         10.297866    2.430008   -0.197910
 H         12.188316   -0.687565    0.062321
 C          7.117753    2.298865   -0.125954
 C          7.224813    3.285759   -1.078817
 C          6.389840    4.396271   -0.795662
 C          5.644164    4.302521    0.353365
 S          5.984650    2.766282    1.128859
 H          7.850750    3.221044   -1.960630
 C         10.126868   -2.712283    0.152998
 C         10.037153   -3.686540    1.119945
 C         10.869766   -4.799302    0.837337
 C         11.596965   -4.718576   -0.324319
 S         11.240350   -3.192688   -1.113545
 H          9.423570   -3.612329    2.009686
 F          6.338746    5.458844   -1.610800
 F         10.935460   -5.851617    1.664808
 C         13.054535    2.033315   -0.124277
 C         13.383756    3.361641   -0.011361
 S         14.509164    1.073678   -0.325255
 C         14.783317    3.630053   -0.066480
 H         12.652446    4.148794    0.121882
 C         15.562228    2.476763   -0.205725
 C         16.988066    2.202235   -0.240525
 C         17.557815    0.970368    0.052801
 S         18.241643    3.318498   -0.775622
 C         18.956694    0.914042   -0.158174
 H         16.980874    0.132981    0.429955
 C         19.459209    2.103534   -0.619401
 H         19.561242    0.035085    0.035479
 H         20.489373    2.349572   -0.843522
 C          4.198199   -2.435469    0.156946
 C          3.872497   -3.787339    0.227821
 S          2.734781   -1.465160    0.093082
 C          2.503224   -4.077599    0.228072
 H          4.622615   -4.566586    0.274669
 C          1.670018   -2.906220    0.158004
 C          2.030185   -5.471800    0.278980
 O          0.867505   -5.836740    0.227346
 O          3.058156   -6.345656    0.387827
 C         15.304148    5.007049    0.042521
 O         16.442886    5.361881   -0.210530
 O         14.347122    5.867951    0.452815
 S         12.764496   -5.873833   -0.950341
 S          4.468773    5.451828    0.975579
 C         11.709437   -6.949597   -2.006632
 H         12.379292   -7.695895   -2.442425
 H         10.948324   -7.450731   -1.405506
 H         11.243674   -6.369652   -2.806131
 C          5.511545    6.520026    2.051540
 H          6.278833    7.026230    1.462624
 H          4.836389    7.262582    2.485541
 H          5.968840    5.934266    2.851691
 C          2.688274   -7.734828    0.432639
 H          3.627485   -8.280828    0.520246
 H          2.046797   -7.933069    1.294832
 H          2.161330   -8.020940   -0.481016
 C         14.750972    7.245631    0.552546
 H         15.554783    7.355585    1.284482
 H         15.093087    7.615556   -0.417188
 H         13.861255    7.784808    0.876978
 C          0.291108   -2.665486    0.143232
 S         -1.021232   -3.872500    0.233643
 C         -0.276158   -1.350081    0.064738
 C         -2.270873   -2.598954    0.175346
 C         -1.638383   -1.314965    0.081076
 H          0.329969   -0.453869   -0.002839
 C         -3.660971   -2.768641    0.205024
 H         -2.198830   -0.388598    0.027466
 S         -4.651700   -1.277388    0.114338
 C         -4.551531   -3.894167    0.296253
 C         -6.162065   -2.171452    0.190192
 C         -5.905286   -3.535504    0.285837
 C         -4.149187   -5.307561    0.393331
 C         -7.426330   -1.513600    0.150504
 H         -6.693386   -4.275389    0.344700
 O         -3.004187   -5.727675    0.404119
 O         -5.221701   -6.129492    0.473327
 C         -7.680736   -0.163554    0.012383
 S         -8.930812   -2.447764    0.281688
 C         -4.921113   -7.532505    0.572020
 C         -9.065395    0.173469    0.006416
 H         -6.891105    0.568747   -0.103044
 C         -9.897292   -0.981993    0.133503
 H         -4.365444   -7.868302   -0.307024
 H         -4.331742   -7.735994    1.469513
 H         -5.888431   -8.031621    0.627566
 C         -9.656580    1.455039   -0.157194
 C        -11.291852   -0.933890    0.092381
 C        -11.053094    1.500444   -0.200071
 C         -8.854064    2.683806   -0.276342
 C        -11.881838    0.346615   -0.073255
 C        -12.096665   -2.162336    0.215030
 S        -12.025809    2.961691   -0.351274
 C         -8.914016    3.631094   -1.272522
 S         -7.698624    3.151306    0.957795
 C        -13.272197    0.685024   -0.080507
 C        -12.055750   -3.093784    1.226364
 S        -13.229694   -2.646627   -1.032414
 C        -13.521954    2.025124   -0.219404
 C         -8.025029    4.710725   -1.038833
 H         -9.543269    3.557486   -2.151259
 C         -7.283422    4.632183    0.113934
 H        -14.059732   -0.049734    0.035764
 C        -12.941953   -4.176137    0.992983
 H        -11.440532   -3.008083    2.113940
 C        -13.662853   -4.114072   -0.173704
 C        -14.799793    2.702147   -0.266831
 F         -7.922383    5.731659   -1.901011
 S         -6.051246    5.748439    0.684403
 F        -13.060883   -5.184175    1.868254
 S        -14.886162   -5.237622   -0.748992
 C        -15.059634    4.053896   -0.271142
 S        -16.308758    1.792726   -0.332759
 C         -7.040483    6.926964    1.693604
 C        -13.881129   -6.431823   -1.723589
 C        -16.452930    4.361994   -0.321386
 H        -14.288245    4.813355   -0.231698
 C        -17.243173    3.237191   -0.354957
 H         -6.328367    7.653944    2.093630
 H         -7.775687    7.441926    1.072255
 H         -7.533493    6.409978    2.519466
 H        -13.157743   -6.938686   -1.082054
 H        -14.587111   -7.163649   -2.125646
 H        -13.372778   -5.927427   -2.547930
 C        -17.046313    5.718266   -0.335411
 H        -18.323031    3.201132   -0.393508
 O        -18.240884    5.950210   -0.372524
 O        -16.097997    6.677587   -0.302527
 C        -16.583008    8.032803   -0.314748
 H        -15.692573    8.660356   -0.286462
 H        -17.159112    8.223637   -1.223497
 H        -17.213356    8.220354    0.557960
       144
S1: Total Energy = -10937.4242697
 C          5.500791   -1.828809    0.208284
 C          5.827472   -0.483200    0.096001
 C          7.216720   -0.216967    0.083937
 C          7.996390   -1.418155    0.171005
 S          6.958158   -2.837946    0.297737
 H          5.072484    0.287676    0.003050
 C          7.873306    1.044560   -0.054948
 C          9.386053   -1.439243    0.107097
 C          9.266754    1.018912   -0.120327
 C         10.040734   -0.180011   -0.035509
 C         11.437801    0.084491   -0.048360
 C         11.760978    1.420278   -0.153943
 S         10.312799    2.433783   -0.241817
 H         12.188659   -0.691046    0.042565
 C          7.132717    2.311843   -0.121611
 C          7.264182    3.313133   -1.058142
 C          6.427294    4.422144   -0.779235
 C          5.654680    4.315846    0.351200
 S          5.970869    2.768449    1.113758
 H          7.906132    3.257380   -1.928921
 C         10.131450   -2.706991    0.182098
 C         10.043141   -3.675620    1.155214
 C         10.872697   -4.791497    0.876906
 C         11.596798   -4.719128   -0.287295
 S         11.241063   -3.197537   -1.085000
 H          9.433329   -3.594703    2.046945
 F          6.396925    5.495229   -1.581490
 F         10.939264   -5.838677    1.710631
 C         13.065233    2.019470   -0.196408
 C         13.402160    3.355117   -0.189244
 S         14.520622    1.040771   -0.285828
 C         14.799554    3.612365   -0.240423
 H         12.672355    4.153220   -0.140051
 C         15.578979    2.447000   -0.267691
 C         17.000892    2.168385   -0.251868
 C         17.557966    0.948623    0.116696
 S         18.278297    3.257396   -0.792987
 C         18.961581    0.880589   -0.041732
 H         16.966774    0.129890    0.512136
 C         19.484173    2.048617   -0.536846
 H         19.556010    0.009882    0.211221
 H         20.522379    2.281211   -0.737086
 C          4.209938   -2.414869    0.250805
 C          3.875227   -3.761960    0.342027
 S          2.745855   -1.440560    0.191279
 C          2.499280   -4.038613    0.366538
 H          4.618251   -4.547567    0.393414
 C          1.681084   -2.868741    0.286322
 C          2.015623   -5.425628    0.478901
 O          0.849646   -5.775203    0.559103
 O          3.037753   -6.313606    0.490435
 C         15.321810    4.993881   -0.242734
 O         16.465623    5.323319   -0.506565
 O         14.360574    5.887810    0.073773
 S         12.760653   -5.879975   -0.909716
 S          4.466977    5.459134    0.960332
 C         11.699619   -6.964108   -1.951449
 H         12.367037   -7.714023   -2.384744
 H         10.941783   -7.460190   -1.342075
 H         11.229609   -6.390549   -2.753058
 C          5.489133    6.522210    2.061060
 H          6.266202    7.032698    1.488916
 H          4.805246    7.261444    2.487004
 H          5.932590    5.932231    2.865869
 C          2.655723   -7.694987    0.608317
 H          3.590744   -8.255020    0.599158
 H          2.115249   -7.865117    1.542849
 H          2.022419   -7.990511   -0.231845
 C         14.765732    7.269010    0.059729
 H         15.557239    7.441475    0.792961
 H         15.124819    7.552268   -0.932701
 H         13.871715    7.834755    0.320700
 C          0.289301   -2.615684    0.257689
 S         -1.016399   -3.817730    0.311837
 C         -0.267842   -1.314938    0.161639
 C         -2.261361   -2.557834    0.204910
 C         -1.642828   -1.283910    0.133753
 H          0.335325   -0.415383    0.112071
 C         -3.665330   -2.745855    0.204324
 H         -2.202364   -0.358071    0.062265
 S         -4.659526   -1.267042    0.127759
 C         -4.538276   -3.874564    0.259564
 C         -6.168324   -2.169322    0.164209
 C         -5.901037   -3.530124    0.236978
 C         -4.123536   -5.286266    0.324619
 C         -7.431985   -1.518375    0.122801
 H         -6.681348   -4.279708    0.269748
 O         -2.975347   -5.699038    0.320918
 O         -5.189358   -6.119162    0.389814
 C         -7.693966   -0.162024    0.016884
 S         -8.934477   -2.459897    0.209666
 C         -4.876720   -7.521186    0.453792
 C         -9.073296    0.169537    0.005951
 H         -6.904571    0.574143   -0.072071
 C         -9.905805   -0.993729    0.089621
 H         -4.324910   -7.832394   -0.436770
 H         -4.278837   -7.740711    1.341869
 H         -5.839447   -8.029694    0.504787
 C         -9.670554    1.457654   -0.127518
 C        -11.297026   -0.950323    0.029531
 C        -11.065941    1.496650   -0.187777
 C         -8.873976    2.691012   -0.195705
 C        -11.892376    0.335704   -0.105475
 C        -12.098919   -2.183787    0.102162
 S        -12.046455    2.957875   -0.299713
 C         -8.961427    3.695783   -1.133390
 S         -7.691179    3.096378    1.037297
 C        -13.280288    0.666176   -0.115452
 C        -12.057549   -3.155318    1.075292
 S        -13.227045   -2.622593   -1.167281
 C        -13.538956    2.011521   -0.214600
 C         -8.074969    4.766390   -0.857283
 H         -9.607137    3.668082   -2.002722
 C         -7.306040    4.627005    0.271971
 H        -14.065205   -0.075751   -0.031150
 C        -12.937515   -4.231556    0.795367
 H        -11.446140   -3.102833    1.968050
 C        -13.655404   -4.125874   -0.370082
 C        -14.818060    2.679606   -0.253271
 F         -7.998066    5.836074   -1.661168
 S         -6.066717    5.716727    0.876507
 F        -13.054047   -5.274398    1.629205
 S        -14.872739   -5.230418   -0.992618
 C        -15.086293    4.031503   -0.264295
 S        -16.324484    1.761903   -0.296598
 C         -7.036225    6.823322    1.981972
 C        -13.864820   -6.364111   -2.034255
 C        -16.480602    4.331198   -0.303019
 H        -14.318612    4.795320   -0.240036
 C        -17.265980    3.201826   -0.321267
 H         -6.319235    7.533730    2.402556
 H         -7.794692    7.365279    1.413811
 H         -7.499285    6.253717    2.790400
 H        -13.129708   -6.893784   -1.425287
 H        -14.567024   -7.083035   -2.465204
 H        -13.370066   -5.814343   -2.837635
 C        -17.081722    5.684145   -0.321137
 H        -18.345961    3.160467   -0.349285
 O        -18.277898    5.909014   -0.349578
 O        -16.138721    6.648964   -0.302736
 C        -16.631484    8.001336   -0.319667
 H        -15.744410    8.634022   -0.302399
 H        -17.215787    8.183162   -1.225024
 H        -17.255998    8.190876    0.556798
