        96
S0: Total Energy = -4907.87697024
 C          4.715190    0.567985   -0.034551
 C          3.933352   -0.554037    0.041545
 C          2.523665   -0.290418    0.024305
 C          2.255997    1.115859   -0.062005
 S          3.739694    2.059017   -0.137760
 H          4.339984   -1.558128    0.106397
 C          1.463288   -1.185031    0.084198
 C         -4.715210   -0.568117    0.034485
 C         -3.933318    0.553884   -0.041505
 C         -2.523654    0.290217   -0.024229
 C         -2.256025   -1.116075    0.062025
 S         -3.739728   -2.059163    0.137809
 H         -4.339934    1.557980   -0.106393
 C          0.972985    1.613173   -0.075821
 C          6.154088    0.663647   -0.044022
 C          6.941478    1.802400   -0.114360
 S          7.158859   -0.767787    0.040857
 C          8.322934    1.543538   -0.100712
 H          6.526381    2.802666   -0.174006
 C          8.637752    0.190541   -0.018959
 H          9.091875    2.307994   -0.147606
 C          9.972961   -0.336853    0.012467
 C         11.165827    0.390803   -0.029322
 N         10.327311   -1.682601    0.091052
 C         11.682389    1.737122   -0.106447
 C         12.265129   -0.507342    0.023724
 C         11.749544   -1.853905    0.101637
 C          9.461607   -2.848069    0.157704
 N         13.105235    1.564947   -0.095056
 O         11.149369    2.845394   -0.170921
 C         13.457853    0.220498   -0.016951
 O         12.283190   -2.962076    0.166005
 H         10.122274   -3.715244    0.206104
 H          8.831480   -2.930641   -0.733085
 H          8.833068   -2.829964    1.053290
 C         13.971736    2.729944   -0.162012
 C         14.797400   -0.305528    0.015368
 H         13.312241    3.597768   -0.212697
 H         14.600889    2.812363    0.729401
 H         14.602038    2.708967   -1.056195
 C         15.113808   -1.656083    0.094130
 S         16.277695    0.653153   -0.038129
 H         14.345949   -2.421879    0.137478
 C         16.506063   -1.909824    0.110834
 C         17.259286   -0.764952    0.045523
 H         16.935532   -2.903620    0.169060
 H         18.337065   -0.668751    0.041477
 C         -6.154097   -0.663786    0.043842
 C         -6.941509   -1.802531    0.114065
 S         -7.158842    0.767669   -0.041039
 C         -8.322961   -1.543644    0.100353
 H         -6.526441   -2.802811    0.173675
 C         -8.637757   -0.190637    0.018683
 H         -9.091914   -2.308092    0.147171
 C         -9.972949    0.336797   -0.012697
 C        -11.165852   -0.390796    0.029168
 N        -10.327230    1.682563   -0.091260
 C        -11.682490   -1.737084    0.106364
 C        -12.265108    0.507414   -0.023761
 C        -11.749456    1.853949   -0.101695
 C         -9.461457    2.847965   -0.158151
 N        -13.105327   -1.564821    0.095162
 O        -11.149535   -2.845389    0.170812
 C        -13.457871   -0.220352    0.017057
 O        -12.283048    2.962147   -0.166028
 H        -10.122071    3.715164   -0.206844
 H         -8.832844    2.829568   -1.053676
 H         -8.831399    2.930754    0.732670
 C        -13.971887   -2.729763    0.162320
 C        -14.797383    0.305769   -0.015147
 H        -13.312434   -3.597609    0.213179
 H        -14.602199   -2.708581    1.056487
 H        -14.601032   -2.812326   -0.729087
 C        -15.113692    1.656351   -0.093845
 S        -16.277749   -0.652803    0.038357
 H        -14.345776    2.422088   -0.137210
 C        -16.505928    1.910199   -0.110478
 C        -17.259236    0.765381   -0.045180
 H        -16.935325    2.904030   -0.168637
 H        -18.337022    0.669262   -0.041088
 H          1.644540   -2.250042    0.176944
 C          0.134306   -0.711358    0.039061
 C         -0.134325    0.711227   -0.038995
 C         -0.972988   -1.613347    0.075851
 C         -1.463299    1.184866   -0.084106
 H         -1.644643    2.249866   -0.176841
 O         -0.753141   -2.969678    0.166626
 O          0.753226    2.969528   -0.166561
 C         -0.660280   -3.645066   -1.099750
 H         -0.495922   -4.699246   -0.869396
 H         -1.587736   -3.534414   -1.672867
 H          0.180387   -3.259845   -1.688088
 C          0.660218    3.644839    1.099893
 H          0.495960    4.699031    0.869561
 H         -0.180561    3.259619    1.688070
 H          1.587581    3.534045    1.673109
        96
T1: Total Energy = -4907.84296408
 C         -4.722206   -0.555027   -0.036827
 C         -3.926160    0.571937    0.038429
 C         -2.525038    0.304370    0.021809
 C         -2.256968   -1.104371   -0.062941
 S         -3.741876   -2.048118   -0.138793
 H         -4.331363    1.576480    0.102528
 C         -1.459179    1.198126    0.081543
 C          4.717945    0.573047    0.034209
 C          3.932447   -0.548323   -0.040345
 C          2.525187   -0.281939   -0.023940
 C          2.259599    1.124192    0.060197
 S          3.744611    2.065114    0.134926
 H          4.337396   -1.553225   -0.103749
 C         -0.976320   -1.601557   -0.075418
 C         -6.141689   -0.637014   -0.044927
 C         -6.951888   -1.780347   -0.116574
 S         -7.144794    0.812301    0.043384
 C         -8.313092   -1.524816   -0.101852
 H         -6.537268   -2.781054   -0.177936
 C         -8.640992   -0.145973   -0.016586
 H         -9.084030   -2.286340   -0.149105
 C         -9.939450    0.365216    0.015203
 C        -11.177184   -0.384449   -0.029333
 N        -10.330946    1.703755    0.096727
 C        -11.690929   -1.741137   -0.110230
 C        -12.251335    0.487846    0.024487
 C        -11.737095    1.852525    0.106579
 C         -9.478061    2.880279    0.166629
 N        -13.106131   -1.583451   -0.099179
 O        -11.141369   -2.843995   -0.176915
 C        -13.481360   -0.251477   -0.018416
 O        -12.300671    2.945264    0.172728
 H        -10.143931    3.742699    0.217488
 H         -8.849040    2.966348   -0.724054
 H         -8.849526    2.860857    1.061609
 C        -13.962397   -2.757460   -0.168984
 C        -14.801853    0.270936    0.015290
 H        -13.298092   -3.620937   -0.221206
 H        -14.590911   -2.841738    0.722251
 H        -14.592143   -2.734780   -1.063058
 C        -15.128310    1.629145    0.097966
 S        -16.287651   -0.692373   -0.040626
 H        -14.364159    2.397577    0.143176
 C        -16.517021    1.875575    0.115166
 C        -17.271617    0.728965    0.047063
 H        -16.949469    2.868070    0.175917
 H        -18.349201    0.632342    0.043029
 C          6.155820    0.665256    0.043564
 C          6.946298    1.802816    0.112481
 S          7.158125   -0.768572   -0.039561
 C          8.326573    1.541186    0.099165
 H          6.533167    2.803963    0.170881
 C          8.639228    0.187042    0.019125
 H          9.097113    2.304118    0.145053
 C          9.972929   -0.342052   -0.011613
 C         11.167406    0.383906    0.029291
 N         10.325658   -1.688556   -0.088494
 C         11.686010    1.729411    0.104813
 C         12.265132   -0.515958   -0.022694
 C         11.747321   -1.861932   -0.098961
 C          9.458174   -2.852741   -0.153596
 N         13.108524    1.555008    0.093530
 O         11.154692    2.838770    0.167863
 C         13.459195    0.209921    0.017085
 O         12.279590   -2.970902   -0.161933
 H         10.117460   -3.721022   -0.201053
 H          8.829485   -2.834691   -1.049080
 H          8.828009   -2.933209    0.737362
 C         13.976781    2.718713    0.158842
 C         14.797891   -0.318145   -0.014622
 H         13.318586    3.587605    0.208310
 H         14.607098    2.698042    1.053039
 H         14.606115    2.798917   -0.732660
 C         15.112512   -1.669212   -0.091969
 S         16.279533    0.638577    0.038098
 H         14.343588   -2.433977   -0.134560
 C         16.504456   -1.924845   -0.108310
 C         17.259309   -0.781004   -0.044121
 H         16.932533   -2.919311   -0.165511
 H         18.337214   -0.686267   -0.040110
 H         -1.639454    2.263375    0.173275
 C         -0.132143    0.723158    0.037483
 C          0.135154   -0.700455   -0.038844
 C          0.976978    1.623430    0.073280
 C          1.460762   -1.175554   -0.082954
 H          1.640607   -2.241006   -0.173769
 O          0.759764    2.980374    0.161778
 O         -0.755936   -2.958507   -0.164382
 C          0.663909    3.652883   -1.105875
 H          0.501212    4.707793   -0.877586
 H          1.589680    3.539955   -1.681307
 H         -0.178780    3.267108   -1.690923
 C         -0.666753   -3.631298    1.103345
 H         -0.499892   -4.685774    0.875838
 H          0.171134   -3.243855    1.694303
 H         -1.596486   -3.521034    1.672877
        96
S1: Total Energy = -4907.81548954
 C         -4.719851   -0.594757   -0.041380
 C         -3.919347    0.539526    0.034018
 C         -2.530675    0.275104    0.019671
 C         -2.254508   -1.132067   -0.063985
 S         -3.736549   -2.078569   -0.141013
 H         -4.328292    1.542534    0.097072
 C         -1.456636    1.178582    0.080907
 C          4.719849    0.594739    0.041458
 C          3.919344   -0.539545   -0.033920
 C          2.530672   -0.275123   -0.019570
 C          2.254505    1.132049    0.064077
 S          3.736547    2.078552    0.141082
 H          4.328289   -1.542553   -0.096966
 C         -0.973171   -1.623485   -0.074435
 C         -6.137476   -0.675520   -0.049644
 C         -6.947522   -1.816079   -0.119477
 S         -7.138896    0.770559    0.036089
 C         -8.312732   -1.550594   -0.104777
 H         -6.538160   -2.818939   -0.179177
 C         -8.628257   -0.181995   -0.022351
 H         -9.088604   -2.308165   -0.150530
 C         -9.945540    0.340638    0.009637
 C        -11.154598   -0.389838   -0.031461
 N        -10.309930    1.687136    0.088907
 C        -11.673777   -1.736491   -0.108511
 C        -12.243850    0.504086    0.022726
 C        -11.725787    1.854436    0.100550
 C         -9.445719    2.853743    0.154591
 N        -13.095341   -1.563822   -0.095676
 O        -11.141667   -2.846963   -0.174045
 C        -13.450475   -0.221906   -0.016861
 O        -12.266180    2.959962    0.165265
 H        -10.106300    3.720884    0.203414
 H         -8.816231    2.935866   -0.736683
 H         -8.816148    2.835595    1.049435
 C        -13.961778   -2.728748   -0.162372
 C        -14.780513    0.307609    0.017531
 H        -13.302860   -3.596945   -0.213363
 H        -14.590897   -2.810069    0.729202
 H        -14.592766   -2.706587   -1.056109
 C        -15.097442    1.662520    0.097233
 S        -16.266872   -0.648529   -0.033889
 H        -14.327995    2.426638    0.139547
 C        -16.487082    1.916892    0.115993
 C        -17.245104    0.773252    0.051654
 H        -16.915000    2.911466    0.175031
 H        -18.323159    0.680500    0.049336
 C          6.137474    0.675505    0.049699
 C          6.947519    1.816068    0.119479
 S          7.138896   -0.770573   -0.036014
 C          8.312729    1.550587    0.104747
 H          6.538155    2.818929    0.179160
 C          8.628256    0.181987    0.022349
 H          9.088600    2.308161    0.150459
 C          9.945541   -0.340641   -0.009655
 C         11.154595    0.389841    0.031410
 N         10.309937   -1.687140   -0.088897
 C         11.673768    1.736498    0.108444
 C         12.243852   -0.504078   -0.022768
 C         11.725794   -1.854434   -0.100539
 C          9.445732   -2.853749   -0.154606
 N         13.095332    1.563837    0.095587
 O         11.141652    2.846970    0.173943
 C         13.450473    0.221921    0.016792
 O         12.266192   -2.959957   -0.165257
 H         10.106317   -3.720883   -0.203498
 H          8.816126   -2.835558   -1.049424
 H          8.816279   -2.935926    0.736688
 C         13.961764    2.728768    0.162243
 C         14.780514   -0.307586   -0.017613
 H         13.302842    3.596962    0.213252
 H         14.592783    2.706617    1.055959
 H         14.590852    2.810089   -0.729353
 C         15.097452   -1.662496   -0.097294
 S         16.266867    0.648564    0.033761
 H         14.328009   -2.426620   -0.139578
 C         16.487094   -1.916857   -0.116075
 C         17.245109   -0.773211   -0.051774
 H         16.915018   -2.911430   -0.175102
 H         18.323162   -0.680451   -0.049479
 H         -1.644718    2.242664    0.170814
 C         -0.139232    0.713163    0.037944
 C          0.139229   -0.713183   -0.037833
 C          0.973168    1.623466    0.074539
 C          1.456633   -1.178602   -0.080798
 H          1.644717   -2.242683   -0.170703
 O          0.743026    2.975122    0.162229
 O         -0.743036   -2.975143   -0.162128
 C          0.652440    3.654092   -1.104236
 H          0.474107    4.705004   -0.870652
 H          1.586196    3.555340   -1.668698
 H         -0.179066    3.260514   -1.699559
 C         -0.652416   -3.654109    1.104336
 H         -0.474085   -4.705021    0.870750
 H          0.179105   -3.260528    1.699638
 H         -1.586158   -3.555357    1.668821
