       110
S0: Total Energy = -5936.48750419
 C          0.436398   -1.742579   -0.188921
 C         -0.434245    1.743441   -0.007698
 C         -1.635609   -0.663725   -0.109473
 C          1.637761    0.664584   -0.086920
 C         -0.634365    0.314506   -0.074393
 C          0.636540   -0.313674   -0.121329
 C         -3.052521   -0.450134   -0.081624
 C          3.054748    0.451107   -0.114936
 C         -3.665537    0.799181   -0.016778
 C          3.667814   -0.798084   -0.181735
 H         -3.087826    1.717363    0.018774
 H          3.090104   -1.716166   -0.219850
 C         -5.067992    0.742261   -0.003881
 C          5.070307   -0.740862   -0.199240
 H         -5.696771    1.624985    0.041924
 H          5.699442   -1.622626   -0.257169
 C         -5.581323   -0.546430   -0.057398
 C          5.583182    0.547968   -0.147480
 C         -1.568221   -3.226330   -0.238247
 C          1.570365    3.227216    0.041104
 H         -0.729793   -3.923304   -0.283094
 H          0.731935    3.924188    0.085924
 H         -2.184665   -3.353905   -1.133344
 H          2.186938    3.355104    0.936081
 N         -0.986805   -1.895714   -0.177963
 N          0.988963    1.896573   -0.018661
 O          1.206792   -2.702178   -0.246222
 O         -1.204647    2.703095    0.048757
 S         -4.279923   -1.717077   -0.124760
 S          4.282108    1.717985   -0.068461
 H          2.165845    3.444664   -0.850791
 H         -2.163834   -3.444065    0.653503
 C         -6.956342   -0.969152   -0.062498
 C         -7.474926   -2.248359   -0.132582
 S         -8.259976    0.198087    0.030069
 C         -8.889466   -2.325122   -0.120844
 H         -6.849349   -3.132906   -0.198073
 C         -9.485020   -1.066373   -0.041670
 C         -9.615890   -3.642074   -0.198164
 C        -10.872147   -0.673493   -0.018108
 H        -10.181029   -3.852144    0.718214
 H        -10.325562   -3.669653   -1.033228
 H         -8.903507   -4.459767   -0.339796
 C        -11.383932    0.616853   -0.085171
 S        -12.190329   -1.824625    0.133220
 C        -12.784838    0.682377   -0.019012
 H        -10.756711    1.495567   -0.187004
 C        -13.407926   -0.553278    0.100917
 H        -13.332280    1.617765   -0.060738
 C        -14.822995   -0.813411    0.172822
 C        -15.520793   -2.015789    0.357664
 S        -15.924087    0.546180    0.015255
 C        -16.912969   -1.811248    0.371679
 C        -14.906562   -3.379985    0.530691
 C        -17.326064   -0.493879    0.203837
 H        -17.625277   -2.619280    0.507295
 H        -14.339408   -3.689755   -0.355227
 H        -14.223131   -3.416000    1.387091
 H        -15.688163   -4.126246    0.698886
 C        -18.686903   -0.087251    0.189457
 H        -19.402089   -0.897855    0.316554
 C        -19.262823    1.148845    0.042506
 C        -20.747597    1.227142    0.073421
 C        -18.516362    2.347849   -0.135921
 O        -21.483771    0.267575    0.218753
 O        -21.180941    2.491706   -0.079364
 N        -17.895392    3.323949   -0.281381
 C        -22.609044    2.670327   -0.063550
 H        -23.024766    2.331774    0.888619
 H        -22.767588    3.740407   -0.193432
 H        -23.071859    2.110524   -0.879992
 C          6.957999    0.971666   -0.149552
 C          7.475379    2.251767   -0.209760
 S          8.262117   -0.195160   -0.062300
 C          8.889967    2.329385   -0.197546
 H          6.848720    3.135544   -0.275472
 C          9.486249    1.070462   -0.127873
 C          9.615761    3.647075   -0.268356
 C         10.873643    0.678249   -0.105566
 H         10.173711    3.856832    0.652527
 H         10.331728    3.676031   -1.097915
 H          8.903701    4.464274   -0.414456
 C         11.386715   -0.610448   -0.191220
 S         12.189843    1.827534    0.073348
 C         12.787183   -0.676221   -0.116610
 H         10.760758   -1.487448   -0.313548
 C         13.408639    0.557623    0.028347
 H         13.335575   -1.610333   -0.172353
 C         14.822674    0.816659    0.120783
 C         15.519887    2.021408    0.292379
 S         15.923428   -0.548165    0.013611
 C         16.911174    1.814784    0.334117
 C         14.906423    3.390561    0.423981
 C         17.324325    0.493450    0.201452
 H         17.622519    2.624688    0.463320
 H         14.337237    3.672602   -0.469762
 H         14.225155    3.453916    1.280650
 H         15.688792    4.141190    0.567381
 C         18.684182    0.083805    0.219672
 H         19.399088    0.895238    0.343093
 C         19.259456   -1.156410    0.109129
 C         20.743116   -1.237426    0.170993
 C         18.513230   -2.357051   -0.059044
 O         21.478814   -0.276520    0.309831
 O         21.176079   -2.506032    0.055078
 N         17.892490   -3.334437   -0.196722
 C         22.603060   -2.687521    0.104617
 H         22.999363   -2.331750    1.058819
 H         22.761450   -3.760270   -0.001208
 H         23.084680   -2.144564   -0.712313
       110
T1: Total Energy = -5936.45806266
 C         -0.430560    1.749127    0.117435
 C          0.430550   -1.749256    0.119060
 C          1.653502    0.699190    0.116736
 C         -1.653513   -0.699321    0.117105
 C          0.622175   -0.304261    0.118036
 C         -0.622187    0.304132    0.117669
 C          3.040093    0.491741    0.112992
 C         -3.040103   -0.491871    0.112980
 C          3.670318   -0.775140    0.110477
 C         -3.670321    0.775010    0.109291
 H          3.092360   -1.693226    0.113397
 H         -3.092359    1.693096    0.111489
 C          5.055990   -0.716938    0.103501
 C         -5.055992    0.716809    0.102224
 H          5.686497   -1.599861    0.100434
 H         -5.686496    1.599730    0.098357
 C          5.583234    0.582334    0.100601
 C         -5.583243   -0.582462    0.100400
 C          1.542249    3.258910    0.117373
 C         -1.542263   -3.259038    0.120132
 H          0.698548    3.950321    0.120041
 H         -0.698564   -3.950447    0.123553
 H          2.145039    3.434835   -0.778327
 H         -2.149169   -3.431870    1.013641
 N          0.976053    1.918976    0.117138
 N         -0.976066   -1.919105    0.118707
 O         -1.223105    2.692682    0.117710
 O          1.223093   -2.692810    0.120328
 S          4.276601    1.765009    0.107326
 S         -4.276617   -1.765139    0.108272
 H         -2.144943   -3.435805   -0.775477
 H          2.149042    3.432584    1.010795
 C          6.944148    0.990413    0.091843
 C          7.472235    2.278300    0.092559
 S          8.251964   -0.184444    0.075562
 C          8.878349    2.351154    0.080160
 H          6.846350    3.164827    0.101877
 C          9.479217    1.084390    0.069195
 C          9.608937    3.667703    0.078222
 C         10.859910    0.695398    0.051958
 H         10.255582    3.777531    0.957026
 H         10.241823    3.782337   -0.809913
 H          8.895777    4.496783    0.086081
 C         11.369839   -0.601714    0.035323
 S         12.188740    1.848780    0.050240
 C         12.768682   -0.668597    0.020802
 H         10.737865   -1.482853    0.034985
 C         13.401266    0.570951    0.025750
 H         13.312328   -1.607066    0.009805
 C         14.816065    0.824812    0.005302
 C         15.528316    2.033612    0.061327
 S         15.904436   -0.551241   -0.105621
 C         16.917215    1.820626    0.018037
 C         14.928295    3.411346    0.160871
 C         17.317841    0.490618   -0.071055
 H         17.638436    2.631362    0.053964
 H         14.306299    3.651599   -0.709662
 H         14.300834    3.521727    1.053086
 H         15.720143    4.163595    0.217777
 C         18.673570    0.074701   -0.126045
 H         19.397328    0.887102   -0.097085
 C         19.237566   -1.173948   -0.210334
 C         20.720862   -1.259875   -0.250470
 C         18.479175   -2.377348   -0.260030
 O         21.467029   -0.297474   -0.212448
 O         21.142750   -2.535240   -0.334369
 N         17.848424   -3.357373   -0.299868
 C         22.569192   -2.720771   -0.378330
 H         23.033164   -2.324621    0.528330
 H         22.718286   -3.797924   -0.446699
 H         22.992495   -2.217174   -1.250923
 C         -6.944161   -0.990532    0.091903
 C         -7.472272   -2.278408    0.093867
 S         -8.251954    0.184332    0.074305
 C         -8.878387   -2.351249    0.081461
 H         -6.846402   -3.164935    0.104163
 C         -9.479231   -1.084484    0.069220
 C         -9.608997   -3.667787    0.080861
 C        -10.859915   -0.695475    0.051693
 H        -10.256239   -3.776388    0.959371
 H        -10.241281   -3.783645   -0.807549
 H         -8.895857   -4.496868    0.090339
 C        -11.369818    0.601645    0.034873
 S        -12.188764   -1.848834    0.049554
 C        -12.768654    0.668552    0.019930
 H        -10.737833    1.482776    0.034753
 C        -13.401265   -0.570985    0.024723
 H        -13.312273    1.607034    0.008764
 C        -14.816065   -0.824813    0.004111
 C        -15.528330   -2.033656    0.059047
 S        -15.904430    0.551352   -0.105527
 C        -16.917228   -1.820618    0.015978
 C        -14.928328   -3.411494    0.157263
 C        -17.317843   -0.490526   -0.071896
 H        -17.638447   -2.631387    0.051151
 H        -14.305783   -3.650653   -0.713173
 H        -14.301419   -3.522959    1.049736
 H        -15.720188   -4.163833    0.212757
 C        -18.673564   -0.074537   -0.126486
 H        -19.397342   -0.886942   -0.098154
 C        -19.237534    1.174196   -0.209727
 C        -20.720831    1.260189   -0.249694
 C        -18.479113    2.377615   -0.258507
 O        -21.467014    0.297773   -0.212395
 O        -21.142698    2.535626   -0.332597
 N        -17.848335    3.357652   -0.297599
 C        -22.569139    2.721220   -0.376348
 H        -23.033084    2.324333    0.530003
 H        -22.718215    3.798432   -0.443825
 H        -22.992486    2.218350   -1.249339
       110
S1: Total Energy = -5936.43567541
 C         -0.444208    1.744010   -0.027044
 C          0.444204   -1.744320   -0.026037
 C          1.641986    0.694415   -0.024897
 C         -1.641988   -0.694717   -0.024800
 C          0.629635   -0.304710   -0.028925
 C         -0.629634    0.304400   -0.029198
 C          3.038383    0.491989   -0.021060
 C         -3.038382   -0.492263   -0.021303
 C          3.667091   -0.769989   -0.030605
 C         -3.667053    0.769728   -0.031569
 H          3.090192   -1.689270   -0.041489
 H         -3.090124    1.688986   -0.042812
 C          5.053413   -0.711305   -0.022913
 C         -5.053378    0.711089   -0.024064
 H          5.686184   -1.592208   -0.027899
 H         -5.686122    1.592009   -0.029556
 C          5.575833    0.591802   -0.005638
 C         -5.575839   -0.591994   -0.006230
 C          1.536059    3.255397   -0.025390
 C         -1.536058   -3.255706   -0.023878
 H          0.690688    3.944935   -0.031957
 H         -0.690682   -3.945242   -0.029907
 H          2.144611    3.429314   -0.917681
 H         -2.135344   -3.435531    0.873552
 N          0.971097    1.915234   -0.023906
 N         -0.971102   -1.915539   -0.023061
 O         -1.230643    2.690331   -0.028418
 O          1.230632   -2.690647   -0.026785
 S          4.267437    1.767543   -0.001429
 S         -4.267478   -1.767772   -0.001247
 H         -2.144453   -3.430140   -0.916175
 H          2.135192    3.435733    0.872040
 C          6.932734    0.999019    0.008622
 C          7.461714    2.290656    0.038721
 S          8.242708   -0.175411   -0.008817
 C          8.861339    2.366919    0.048802
 H          6.833376    3.175497    0.054123
 C          9.468895    1.094868    0.024341
 C          9.592303    3.682351    0.081121
 C         10.842863    0.714037    0.020750
 H         10.223359    3.776900    0.972824
 H         10.240551    3.810693   -0.793832
 H          8.879209    4.511451    0.090358
 C         11.357552   -0.586743   -0.021134
 S         12.175931    1.868285    0.072045
 C         12.750362   -0.654644   -0.013435
 H         10.725076   -1.466961   -0.057266
 C         13.388225    0.588399    0.035679
 H         13.294705   -1.592107   -0.042191
 C         14.797080    0.834262    0.052022
 C         15.517175    2.042991    0.119337
 S         15.886918   -0.548849   -0.020256
 C         16.902101    1.825535    0.112213
 C         14.918992    3.422722    0.193137
 C         17.303650    0.490505    0.040698
 H         17.625090    2.634096    0.159522
 H         14.303933    3.650626   -0.685711
 H         14.284320    3.547809    1.078594
 H         15.711636    4.174490    0.245281
 C         18.654992    0.070008    0.020062
 H         19.382099    0.878485    0.065097
 C         19.217381   -1.185674   -0.048346
 C         20.697217   -1.277987   -0.051388
 C         18.456384   -2.384956   -0.115794
 O         21.449414   -0.319662    0.004764
 O         21.118470   -2.556697   -0.124322
 N         17.823377   -3.363647   -0.170719
 C         22.544158   -2.744459   -0.132613
 H         22.987250   -2.349751    0.785255
 H         22.693658   -3.821938   -0.197632
 H         22.991381   -2.241626   -0.993863
 C         -6.932754   -0.999164    0.008058
 C         -7.461770   -2.290770    0.038882
 S         -8.242694    0.175287   -0.010253
 C         -8.861399   -2.366991    0.048828
 H         -6.833458   -3.175619    0.054903
 C         -9.468919   -1.094940    0.023489
 C         -9.592398   -3.682388    0.081840
 C        -10.842877   -0.714074    0.019474
 H        -10.223285   -3.776545    0.973706
 H        -10.240817   -3.811078   -0.792932
 H         -8.879325   -4.511505    0.091298
 C        -11.357534    0.586671   -0.023871
 S        -12.175971   -1.868228    0.072160
 C        -12.750341    0.654615   -0.016193
 H        -10.725034    1.466825   -0.061144
 C        -13.388236   -0.588355    0.034364
 H        -13.294663    1.592054   -0.046150
 C        -14.797093   -0.834157    0.051231
 C        -15.517219   -2.042867    0.118562
 S        -15.886896    0.549018   -0.020348
 C        -16.902138   -1.825353    0.111886
 C        -14.919081   -3.422645    0.191835
 C        -17.303653   -0.490293    0.040741
 H        -17.625140   -2.633902    0.159179
 H        -14.303577   -3.650025   -0.686831
 H        -14.284860   -3.548271    1.077545
 H        -15.711760   -4.174434    0.243144
 C        -18.654981   -0.069733    0.020532
 H        -19.382115   -0.878179    0.065698
 C        -19.217334    1.185983   -0.047589
 C        -20.697166    1.278361   -0.050186
 C        -18.456302    2.385237   -0.115161
 O        -21.449387    0.320063    0.006094
 O        -21.118384    2.557095   -0.122896
 N        -17.823276    3.363909   -0.170187
 C        -22.544066    2.744921   -0.130765
 H        -22.986910    2.350199    0.787216
 H        -22.693537    3.822409   -0.195699
 H        -22.991563    2.242141   -0.991904
