       155
S0: Total Energy = -7594.75313074
 C         19.292453   -0.065354    0.324266
 C         19.928430    0.704033    1.283025
 S         20.472406   -0.873415   -0.681586
 C         21.333587    0.647869    1.225592
 H         19.390671    1.274732    2.031692
 C         21.818892   -0.172637    0.212714
 H         21.998167    1.177281    1.900893
 C         23.211444   -0.400738   -0.058358
 C         24.302698    0.153721    0.616442
 N         23.732691   -1.223138   -1.055367
 C         24.644823    1.046320    1.697888
 C         25.507398   -0.326243    0.034289
 C         25.165610   -1.218566   -1.047963
 C         23.020667   -2.030745   -2.031386
 N         26.078442    1.052537    1.703035
 O         23.976718    1.703641    2.497300
 C         26.598251    0.230445    0.706622
 O         25.834273   -1.877573   -1.845328
 H         23.785191   -2.532329   -2.626895
 H         22.405211   -1.411993   -2.691634
 H         22.394851   -2.785905   -1.546168
 C         26.790982    1.859723    2.679087
 C         27.994181    0.006791    0.432436
 H         26.027012    2.356239    3.279445
 H         27.411918    1.240877    3.334005
 H         27.411877    2.618995    2.193930
 C         28.479218   -0.818953   -0.573781
 S         29.341263    0.730648    1.312570
 H         27.814700   -1.364001   -1.236498
 C         29.892711   -0.866387   -0.633511
 C         30.495053   -0.083959    0.318777
 H         30.444372   -1.458218   -1.355266
 H         31.551961    0.063926    0.497508
 C         17.856506   -0.233033    0.098051
 C         16.960438    0.751007    0.551304
 C         17.341068   -1.371252   -0.568053
 C         15.596081    0.577500    0.344783
 H         17.333149    1.646481    1.037288
 C         15.980710   -1.531731   -0.778370
 H         18.022082   -2.147560   -0.903714
 C         15.077803   -0.557491   -0.322717
 H         15.615596   -2.418424   -1.288682
 C         13.083529    0.647040    0.153600
 C         13.633305   -0.518951   -0.430004
 C         11.713505    0.885348    0.172257
 C         12.756406   -1.450004   -1.009816
 C         10.843497   -0.049271   -0.416364
 H         11.316729    1.771936    0.655464
 C         11.390551   -1.215563   -1.004141
 H         13.146054   -2.352139   -1.472670
 H         10.729984   -1.933676   -1.480648
 S         14.324876    1.703241    0.841810
 C          9.401778    0.200293   -0.413206
 S          8.251173   -1.108319   -0.558000
 C          8.738158    1.409178   -0.294013
 C          6.879423   -0.006010   -0.469096
 C          7.335535    1.300337   -0.324690
 H          9.254693    2.359049   -0.215016
 C          5.495789   -0.387296   -0.526477
 H          6.652192    2.140453   -0.253128
 C          4.384325    0.456854   -0.436346
 N          5.003390   -1.681888   -0.679026
 C          3.197810   -0.318248   -0.530517
 C          4.011103    1.842588   -0.276830
 C          3.571050   -1.704118   -0.688899
 C          5.743101   -2.924069   -0.826903
 C          2.086341    0.525140   -0.433508
 N          2.578789    1.819778   -0.281337
 O          4.656896    2.884834   -0.157763
 O          2.925280   -2.745675   -0.813882
 H          4.995809   -3.712098   -0.932882
 H          6.374768   -2.909765   -1.720274
 H          6.357163   -3.132694    0.054459
 C          0.702527    0.142795   -0.478257
 C          1.839284    3.062550   -0.137365
 S         -0.668819    1.239384   -0.331710
 C          0.245694   -1.161454   -0.638597
 H          2.586792    3.852319   -0.047063
 H          1.217594    3.057001    0.763135
 H          1.215170    3.261251   -1.013872
 C         -1.820029   -0.065745   -0.499839
 C         -1.157201   -1.271650   -0.649208
 H          0.928787   -1.997124   -0.752216
 C         -3.261771    0.181207   -0.462246
 H         -1.674498   -2.213483   -0.793004
 C         -4.137172   -0.857490   -0.099405
 C         -3.803064    1.448789   -0.786443
 C         -5.506953   -0.617660   -0.077003
 H         -3.744586   -1.828799    0.182502
 C         -5.168764    1.681755   -0.753024
 H         -3.137957    2.251990   -1.089056
 C         -6.051014    0.648724   -0.397439
 S         -6.754874   -1.794715    0.356217
 H         -5.554050    2.663961   -1.011336
 C         -7.496292    0.666857   -0.295619
 C         -8.020995   -0.584345    0.106296
 C         -8.394397    1.719245   -0.536166
 C         -9.387090   -0.794264    0.261187
 C         -9.756520    1.521144   -0.375161
 H         -8.024096    2.694300   -0.839611
 C        -10.278298    0.267359    0.025617
 H         -9.765154   -1.772349    0.539448
 H        -10.434025    2.353725   -0.539096
 C        -11.715813    0.059482    0.202682
 S        -12.889150    1.061860   -0.619445
 C        -12.358044   -0.890872    0.977263
 C        -14.241602    0.194340    0.103785
 C        -13.762667   -0.819844    0.926771
 H        -11.824642   -1.606066    1.593184
 C        -15.632023    0.480030   -0.117085
 H        -14.431600   -1.474450    1.476316
 C        -16.728052   -0.186568    0.439493
 N        -16.147588    1.482955   -0.935723
 C        -17.928323    0.405526   -0.036408
 C        -17.076435   -1.267369    1.331379
 C        -17.580240    1.487315   -0.926756
 C        -15.429940    2.454914   -1.743245
 C        -19.024537   -0.261455    0.520210
 N        -18.508857   -1.263703    1.339606
 O        -16.411818   -2.070604    1.987665
 O        -18.244722    2.292764   -1.580656
 H        -16.190910    3.060586   -2.238016
 H        -14.803927    3.105613   -1.125052
 H        -14.813632    1.966557   -2.504223
 C        -20.414837    0.020953    0.296742
 C        -19.226426   -2.235939    2.147015
 S        -21.766962   -0.859762    1.004980
 C        -20.894830    1.036706   -0.523750
 H        -18.465457   -2.839891    2.643845
 H        -19.850232   -2.888403    1.528459
 H        -19.844957   -1.747449    2.906033
 C        -22.940892    0.155850    0.200861
 C        -22.299639    1.106975   -0.573582
 H        -20.226366    1.705277   -1.056860
 C        -24.378349   -0.057278    0.376411
 H        -22.833705    1.859248   -1.143027
 C        -25.274143    0.387902   -0.611044
 C        -24.894437   -0.702788    1.525521
 C        -26.639941    0.193079   -0.430578
 H        -24.900635    0.857957   -1.514787
 C        -26.256397   -0.900863    1.692517
 H        -24.213333   -1.031414    2.304846
 C        -27.159072   -0.453624    0.715156
 S        -27.911647    0.680942   -1.558992
 H        -26.622295   -1.395511    2.587787
 C        -28.607709   -0.553171    0.683877
 C        -29.155146    0.019070   -0.487714
 C        -29.475954   -1.121153    1.630221
 C        -30.531723    0.032479   -0.721523
 C        -30.847445   -1.110448    1.401861
 H        -29.076281   -1.567085    2.536889
 C        -31.372458   -0.536673    0.232622
 H        -30.939204    0.475501   -1.625328
 H        -31.518768   -1.549664    2.133991
 H        -32.446037   -0.535239    0.067122
       155
T1: Total Energy = -7594.71901137
 C         19.325725    0.031074    0.211122
 C         20.002657    1.029609    0.890578
 S         20.462375   -1.037425   -0.579343
 C         21.403708    0.943470    0.793078
 H         19.497789    1.792397    1.472426
 C         21.845830   -0.131737    0.028904
 H         22.096313    1.631132    1.267848
 C         23.225126   -0.444777   -0.222078
 C         24.345139    0.254054    0.237874
 N         23.702899   -1.513490   -0.978412
 C         24.734091    1.398192    1.027003
 C         25.523513   -0.384538   -0.235390
 C         25.134873   -1.529798   -1.023932
 C         22.949017   -2.541386   -1.676150
 N         26.166935    1.381400    0.980691
 O         24.101319    2.257496    1.642503
 C         26.643010    0.313321    0.224766
 O         25.768448   -2.389567   -1.637623
 H         23.686829   -3.192914   -2.147149
 H         22.307662   -2.111521   -2.451583
 H         22.342362   -3.132821   -0.983683
 C         26.921539    2.408604    1.678714
 C         28.025987   -0.000281   -0.025869
 H         26.184435    3.060592    2.150084
 H         27.562952    1.977692    2.453508
 H         27.528652    2.999535    0.986218
 C         28.467296   -1.077125   -0.784348
 S         29.410132    0.913311    0.576444
 H         27.774748   -1.770872   -1.250098
 C         29.877217   -1.162979   -0.876956
 C         30.520295   -0.160859   -0.195765
 H         30.397343   -1.938532   -1.427897
 H         31.584181    0.012148   -0.100506
 C         17.882489   -0.178872    0.102535
 C         17.001898    0.896096    0.321023
 C         17.342551   -1.448831   -0.215973
 C         15.631107    0.684045    0.228879
 H         17.391029    1.885373    0.537587
 C         15.975352   -1.649811   -0.315190
 H         18.011317   -2.291221   -0.365205
 C         15.088061   -0.583527   -0.092556
 H         15.592322   -2.637264   -0.556330
 C         13.110531    0.716964    0.141088
 C         13.642316   -0.564804   -0.141326
 C         11.744066    0.962475    0.156011
 C         12.742943   -1.608617   -0.418755
 C         10.845714   -0.088257   -0.125550
 H         11.372559    1.952456    0.396590
 C         11.379440   -1.372646   -0.411606
 H         13.115232   -2.603778   -0.644672
 H         10.706481   -2.192501   -0.644020
 S         14.377351    1.909463    0.469154
 C          9.413225    0.154031   -0.117549
 S          8.257836   -1.169929   -0.202699
 C          8.734401    1.369832   -0.042291
 C          6.874991   -0.063506   -0.142571
 C          7.344720    1.263394   -0.055190
 H          9.244425    2.325178    0.004356
 C          5.521719   -0.442219   -0.170291
 H          6.662737    2.105463   -0.008758
 C          4.369588    0.424847   -0.102621
 N          5.000382   -1.730365   -0.262082
 C          3.212381   -0.331217   -0.149809
 C          3.998992    1.830901    0.001053
 C          3.582982   -1.737286   -0.254444
 C          5.727605   -2.985954   -0.367075
 C          2.060351    0.535395   -0.077598
 N          2.581479    1.823616    0.012072
 O          4.667488    2.864572    0.067747
 O          2.914356   -2.770439   -0.327150
 H          4.975790   -3.773479   -0.432227
 H          6.349216   -3.008236   -1.266748
 H          6.350536   -3.158084    0.515396
 C          0.706962    0.155452   -0.092408
 C          1.853896    3.079819    0.106363
 S         -0.676141    1.257847    0.017107
 C          0.237849   -1.170606   -0.192201
 H          2.605406    3.868795    0.155555
 H          1.239269    3.114106    1.010503
 H          1.223922    3.238968   -0.773512
 C         -1.830647   -0.065670   -0.080579
 C         -1.151892   -1.279115   -0.184244
 H          0.920022   -2.009871   -0.273419
 C         -3.263509    0.173156   -0.045965
 H         -1.662510   -2.231177   -0.273003
 C         -4.156987   -0.905444    0.122133
 C         -3.801639    1.480371   -0.178371
 C         -5.524044   -0.663834    0.146681
 H         -3.780684   -1.914781    0.247405
 C         -5.165760    1.711534   -0.147812
 H         -3.131890    2.322831   -0.322555
 C         -6.060684    0.640141    0.015442
 S         -6.785394   -1.889381    0.349627
 H         -5.541971    2.724819   -0.256046
 C         -7.506156    0.648689    0.076510
 C         -8.043707   -0.648615    0.258078
 C         -8.397797    1.730148   -0.019972
 C         -9.413205   -0.874137    0.336037
 C         -9.763777    1.514825    0.065412
 H         -8.019046    2.739539   -0.152624
 C        -10.298131    0.215546    0.244830
 H         -9.798206   -1.882710    0.443531
 H        -10.435845    2.366243    0.014820
 C        -11.739847   -0.010268    0.339655
 S        -12.885619    1.131232   -0.325938
 C        -12.408689   -1.078249    0.913387
 C        -14.261856    0.159679    0.190825
 C        -13.810506   -0.988562    0.834145
 H        -11.897146   -1.896073    1.408102
 C        -15.643572    0.490699   -0.018020
 H        -14.497393   -1.725747    1.237497
 C        -16.758524   -0.258931    0.370743
 N        -16.130838    1.630954   -0.654076
 C        -17.941568    0.419483   -0.026314
 C        -17.137540   -1.483084    1.036026
 C        -17.562814    1.644277   -0.690252
 C        -15.385791    2.730775   -1.243193
 C        -19.056589   -0.330506    0.362066
 N        -18.569483   -1.470436    0.998487
 O        -16.496100   -2.398425    1.554152
 O        -18.204331    2.561408   -1.205263
 H        -16.129305    3.424227   -1.639389
 H        -14.778359    3.249378   -0.495215
 H        -14.746563    2.388219   -2.062598
 C        -20.438387   -0.001182    0.150542
 C        -19.314740   -2.569912    1.588105
 S        -21.814441   -0.984572    0.645669
 C        -20.889815    1.150716   -0.485637
 H        -18.571494   -3.262190    1.986815
 H        -19.920312   -3.090352    0.839887
 H        -19.955886   -2.226202    2.405475
 C        -22.960085    0.170108    0.004579
 C        -22.292118    1.240557   -0.564268
 H        -20.203426    1.899728   -0.867518
 C        -24.403071   -0.058180    0.095343
 H        -22.805864    2.088171   -1.003498
 C        -25.266620    0.571502   -0.817740
 C        -24.956954   -0.900427    1.089044
 C        -26.638109    0.360599   -0.716125
 H        -24.864145    1.197454   -1.607283
 C        -26.324237   -1.112435    1.176593
 H        -24.301713   -1.374677    1.813583
 C        -27.194799   -0.482401    0.273705
 S        -27.872747    1.063519   -1.769746
 H        -26.719482   -1.760786    1.953431
 C        -28.642277   -0.559269    0.182751
 C        -29.151376    0.227199   -0.876534
 C        -29.541378   -1.284687    0.981101
 C        -30.520266    0.298871   -1.142662
 C        -30.905316   -1.217035    0.719725
 H        -29.171316   -1.896252    1.799434
 C        -31.392138   -0.429417   -0.336033
 H        -30.898299    0.907357   -1.958756
 H        -31.600492   -1.778056    1.337454
 H        -32.460277   -0.385628   -0.528732
       155
S1: Total Energy = -7594.69151073
 C         19.317014    0.124621    0.120928
 C         20.009366    1.271369    0.485672
 S         20.444173   -1.126588   -0.360641
 C         21.404957    1.156478    0.393109
 H         19.516661    2.169609    0.839680
 C         21.837753   -0.092277   -0.051045
 H         22.104689    1.946570    0.646261
 C         23.209006   -0.465046   -0.229061
 C         24.338239    0.333581   -0.004884
 N         23.678724   -1.704223   -0.663425
 C         24.738176    1.652631    0.423465
 C         25.507809   -0.413923   -0.301077
 C         25.108112   -1.734735   -0.728635
 C         22.916478   -2.885999   -1.029782
 N         26.169682    1.620559    0.357528
 O         24.114022    2.652172    0.784156
 C         26.635858    0.382705   -0.076563
 O         25.734640   -2.733052   -1.087052
 H         23.648292   -3.644296   -1.312848
 H         22.258941   -2.690401   -1.882292
 H         22.325323   -3.258373   -0.187633
 C         26.933024    2.801104    0.725360
 C         28.013522    0.008224   -0.255264
 H         26.202038    3.560029    1.008750
 H         27.590176    2.603572    1.577741
 H         27.525187    3.173301   -0.116197
 C         28.445070   -1.237891   -0.694123
 S         29.406315    1.049467    0.047202
 H         27.746481   -2.031834   -0.937773
 C         29.853066   -1.349046   -0.783558
 C         30.505752   -0.199219   -0.417036
 H         30.365575   -2.247883   -1.107647
 H         31.570708   -0.009271   -0.391752
 C         17.877821   -0.100196    0.101879
 C         16.992997    0.996749    0.140685
 C         17.332730   -1.408916    0.047200
 C         15.623954    0.770458    0.132741
 H         17.379206    2.010269    0.155555
 C         15.966611   -1.626397    0.033500
 H         18.000211   -2.265396    0.035719
 C         15.076579   -0.537110    0.077606
 H         15.583501   -2.642140   -0.003190
 C         13.100257    0.783426    0.120563
 C         13.635703   -0.529626    0.073284
 C         11.735743    1.025255    0.126754
 C         12.733330   -1.609535    0.030812
 C         10.833272   -0.062445    0.083185
 H         11.365840    2.043570    0.170386
 C         11.371154   -1.378510    0.035672
 H         13.105656   -2.629281   -0.007397
 H         10.698568   -2.230084   -0.003419
 S         14.369069    2.018257    0.173013
 C          9.404212    0.172318    0.086853
 S          8.253090   -1.154655    0.127125
 C          8.718553    1.387487    0.061520
 C          6.869259   -0.054992    0.104989
 C          7.328307    1.271244    0.070944
 H          9.221325    2.347026    0.029240
 C          5.505554   -0.442449    0.119407
 H          6.639888    2.109943    0.051491
 C          4.371973    0.407912    0.103847
 N          5.005578   -1.743789    0.151555
 C          3.201665   -0.368223    0.125982
 C          3.994436    1.806979    0.070288
 C          3.579333   -1.766243    0.157008
 C          5.745249   -2.994490    0.177141
 C          2.067375    0.483722    0.107002
 N          2.569750    1.785719    0.073428
 O          4.645901    2.853310    0.043739
 O          2.930048   -2.814435    0.183493
 H          4.999017   -3.790115    0.199762
 H          6.364086   -3.110754   -0.717770
 H          6.373348   -3.068768    1.070024
 C          0.706843    0.097784    0.119290
 C          1.830259    3.036505    0.046642
 S         -0.680019    1.195055    0.087394
 C          0.249000   -1.232292    0.159404
 H          2.576426    3.832275    0.026947
 H          1.208654    3.151978    0.939720
 H          1.204945    3.111681   -0.848121
 C         -1.830088   -0.136993    0.127588
 C         -1.136822   -1.352732    0.164425
 H          0.940306   -2.068588    0.182198
 C         -3.252675    0.088296    0.120242
 H         -1.636657   -2.313880    0.191252
 C         -4.153539   -1.005155    0.183890
 C         -3.800769    1.403016    0.049034
 C         -5.515756   -0.770810    0.174453
 H         -3.778279   -2.020658    0.242156
 C         -5.161100    1.626889    0.039547
 H         -3.132037    2.256991   -0.002143
 C         -6.061533    0.541217    0.101993
 S         -6.779235   -2.010717    0.249290
 H         -5.538827    2.643761   -0.016565
 C         -7.493833    0.542152    0.104799
 C         -8.040451   -0.769407    0.182427
 C         -8.392487    1.628889    0.041785
 C         -9.403694   -1.000546    0.197355
 C         -9.753849    1.406492    0.055777
 H         -8.013455    2.645053   -0.015835
 C        -10.300471    0.093971    0.133842
 H         -9.780707   -2.015790    0.249408
 H        -10.421652    2.261736    0.012544
 C        -11.726907   -0.131848    0.148354
 S        -12.872292    1.186559   -0.038930
 C        -12.417684   -1.338029    0.299251
 C        -14.258144    0.099655    0.092756
 C        -13.805405   -1.217039    0.270692
 H        -11.918715   -2.289781    0.436778
 C        -15.622387    0.483344    0.029164
 H        -14.496714   -2.046782    0.377074
 C        -16.752357   -0.361402    0.133349
 N        -16.118885    1.773080   -0.149228
 C        -17.924536    0.408190    0.019238
 C        -17.131074   -1.746133    0.318251
 C        -17.546205    1.795022   -0.163872
 C        -15.377095    3.012771   -0.314535
 C        -19.053431   -0.434058    0.123215
 N        -18.561507   -1.722132    0.303202
 O        -16.486464   -2.784882    0.464894
 O        -18.194960    2.831089   -0.307247
 H        -16.121765    3.801410   -0.431868
 H        -14.763026    3.230324    0.564377
 H        -14.745720    2.983099   -1.207513
 C        -20.423528   -0.047831    0.054142
 C        -19.303858   -2.961041    0.471098
 S        -21.805321   -1.140330    0.166863
 C        -20.876209    1.263129   -0.122550
 H        -18.559355   -3.748972    0.594153
 H        -19.914872   -3.182555   -0.409035
 H        -19.938324   -2.927427    1.361741
 C        -22.948231    0.172940   -0.011018
 C        -22.272082    1.377852   -0.158211
 H        -20.188192    2.097542   -0.212033
 C        -24.386889   -0.065079   -0.001834
 H        -22.781443    2.328984   -0.262151
 C        -25.260581    0.903026   -0.533044
 C        -24.936734   -1.257094    0.533038
 C        -26.630682    0.669993   -0.513393
 H        -24.866778    1.812355   -0.974321
 C        -26.303253   -1.482971    0.542175
 H        -24.277246   -2.003608    0.965452
 C        -27.181609   -0.520531    0.017980
 S        -27.873740    1.763651   -1.135703
 H        -26.693126   -2.404746    0.964339
 C        -28.629087   -0.548486   -0.075574
 C        -29.146278    0.622166   -0.678562
 C        -29.523379   -1.549123    0.339766
 C        -30.517709    0.803459   -0.867222
 C        -30.889625   -1.372921    0.153772
 H        -29.147406   -2.456600    0.804182
 C        -31.384138   -0.203214   -0.446163
 H        -30.902075    1.706894   -1.331113
 H        -31.581163   -2.146308    0.474954
 H        -32.454265   -0.079090   -0.585119
