        77
S0: Total Energy = -5266.01534261
 S         -0.000024    1.852097    0.710862
 C         -0.000023    3.220104    1.839146
 C         -0.000004    2.758022    3.149883
 C          0.000014    1.350111    3.273876
 C          0.000003    0.721939    2.028734
 H          0.000009    3.446040    3.985249
 S          0.000024   -1.852097    0.710862
 C          0.000023   -3.220104    1.839146
 C          0.000004   -2.758022    3.149883
 C         -0.000014   -1.350111    3.273876
 C         -0.000003   -0.721939    2.028734
 H         -0.000009   -3.446040    3.985249
Si         -0.000000   -0.000000    4.603520
 C         -0.000049    4.584249    1.348637
 C          0.000089    5.737015    2.212654
 N          0.000282    5.745328    3.550193
 S          0.000352    7.320315    4.021472
 N          0.000218    8.045893    2.548695
 C          0.000049    7.069594    1.638119
 C         -0.000127    7.226824    0.202190
 C          0.000049   -4.584249    1.348637
 C         -0.000089   -5.737015    2.212654
 N         -0.000282   -5.745328    3.550193
 S         -0.000352   -7.320315    4.021472
 N         -0.000218   -8.045893    2.548695
 C         -0.000049   -7.069594    1.638119
 C          0.000127   -7.226824    0.202190
 C         -0.000169    8.506428   -0.465641
 C         -0.000151    9.794353    0.042968
 C         -0.000217   10.791305   -0.955022
 C         -0.000281   10.287081   -2.246342
 S         -0.000284    8.532728   -2.224166
 H         -0.000097   10.000001    1.105243
 H         -0.000244   11.853535   -0.734516
 C          0.000169   -8.506428   -0.465641
 C          0.000151   -9.794353    0.042968
 C          0.000217  -10.791305   -0.955022
 C          0.000281  -10.287081   -2.246342
 S          0.000284   -8.532728   -2.224166
 H          0.000097  -10.000001    1.105243
 H          0.000244  -11.853535   -0.734516
 C         -0.000352   11.014179   -3.493500
 C         -0.000961   10.527979   -4.784449
 C         -0.000796   11.545176   -5.777219
 C         -0.000071   12.819110   -5.268255
 S          0.000411   12.776045   -3.519329
 H         -0.001524    9.467914   -5.016023
 H         -0.001198   11.342420   -6.843327
 C          0.000352  -11.014179   -3.493500
 C          0.000961  -10.527979   -4.784449
 C          0.000796  -11.545176   -5.777219
 C          0.000071  -12.819110   -5.268255
 S         -0.000411  -12.776045   -3.519329
 H          0.001524   -9.467914   -5.016023
 H          0.001198  -11.342420   -6.843327
 C          1.557045   -0.000034    5.667362
 H          1.587200    0.885704    6.312912
 H          1.587100   -0.885716    6.312994
 H          2.460353   -0.000113    5.048379
 C         -1.557045    0.000034    5.667362
 H         -1.587200   -0.885704    6.312912
 H         -1.587100    0.885716    6.312994
 H         -2.460353    0.000113    5.048379
 C          0.000218   14.120788   -6.010849
 H         -0.883436   14.726172   -5.775146
 H          0.883923   14.725972   -5.774848
 H          0.000371   13.929439   -7.088121
 C         -0.000218  -14.120788   -6.010849
 H         -0.883923  -14.725972   -5.774848
 H          0.883436  -14.726172   -5.775146
 H         -0.000371  -13.929439   -7.088121
 C         -0.000205    4.899186   -0.009490
 C          0.000205   -4.899186   -0.009490
 N         -0.000240    6.133318   -0.555268
 N          0.000240   -6.133318   -0.555268
 H         -0.000316    4.093955   -0.741010
 H          0.000316   -4.093955   -0.741010
        77
T1: Total Energy = -5265.98286476
 S         -0.000023    1.846192    0.643891
 C         -0.000052    3.212408    1.789389
 C         -0.000051    2.727424    3.119326
 C         -0.000024    1.344563    3.232485
 C         -0.000011    0.703213    1.961186
 H         -0.000063    3.418641    3.952001
 S          0.000023   -1.846192    0.643891
 C          0.000052   -3.212408    1.789389
 C          0.000051   -2.727424    3.119326
 C          0.000024   -1.344563    3.232485
 C          0.000011   -0.703213    1.961186
 H          0.000063   -3.418641    3.952001
Si          0.000000    0.000000    4.572171
 C         -0.000066    4.556230    1.334152
 C         -0.000086    5.704148    2.213917
 N         -0.000057    5.696899    3.545597
 S         -0.000294    7.279844    4.040228
 N         -0.000011    8.013630    2.556453
 C         -0.000065    7.040628    1.644286
 C         -0.000011    7.205059    0.211111
 C          0.000066   -4.556230    1.334152
 C          0.000086   -5.704148    2.213917
 N          0.000057   -5.696899    3.545597
 S          0.000294   -7.279844    4.040228
 N          0.000011   -8.013630    2.556453
 C          0.000065   -7.040628    1.644286
 C          0.000011   -7.205059    0.211111
 C          0.000057    8.471437   -0.448660
 C          0.000058    9.766816    0.066283
 C          0.000155   10.761640   -0.924135
 C          0.000244   10.263238   -2.223448
 S          0.000147    8.506720   -2.211286
 H         -0.000010    9.963778    1.130009
 H          0.000159   11.823424   -0.700951
 C         -0.000057   -8.471437   -0.448660
 C         -0.000058   -9.766816    0.066283
 C         -0.000155  -10.761640   -0.924135
 C         -0.000244  -10.263238   -2.223448
 S         -0.000147   -8.506720   -2.211286
 H          0.000010   -9.963778    1.130009
 H         -0.000159  -11.823424   -0.700951
 C          0.000362   10.997537   -3.460210
 C          0.000157   10.519139   -4.757009
 C          0.000431   11.541567   -5.741504
 C          0.000843   12.813467   -5.223962
 S          0.000768   12.760997   -3.475803
 H         -0.000155    9.460509   -4.994613
 H          0.000360   11.346419   -6.808985
 C         -0.000362  -10.997537   -3.460210
 C         -0.000157  -10.519139   -4.757009
 C         -0.000431  -11.541567   -5.741504
 C         -0.000843  -12.813467   -5.223962
 S         -0.000768  -12.760997   -3.475803
 H          0.000155   -9.460509   -4.994613
 H         -0.000360  -11.346419   -6.808985
 C          1.560140    0.000028    5.626757
 H          1.591124    0.885862    6.271920
 H          1.591125   -0.885774    6.271965
 H          2.461403    0.000013    5.005070
 C         -1.560140   -0.000028    5.626757
 H         -1.591124   -0.885862    6.271920
 H         -1.591125    0.885774    6.271965
 H         -2.461403   -0.000013    5.005070
 C          0.001215   14.118790   -5.959443
 H         -0.882395   14.722781   -5.719935
 H          0.884865   14.722543   -5.719495
 H          0.001456   13.933645   -7.037743
 C         -0.001215  -14.118790   -5.959443
 H         -0.884865  -14.722543   -5.719495
 H          0.882395  -14.722781   -5.719935
 H         -0.001456  -13.933645   -7.037743
 C         -0.000036    4.885775   -0.048666
 C          0.000036   -4.885775   -0.048666
 N         -0.000002    6.101964   -0.573642
 N          0.000002   -6.101964   -0.573642
 H          0.000003    4.076301   -0.776904
 H         -0.000003   -4.076301   -0.776904
        77
S1: Total Energy = -5265.96459739
 S          0.000003    1.846649    0.660926
 C          0.000002    3.211776    1.799433
 C         -0.000000    2.737847    3.122487
 C          0.000001    1.345618    3.240005
 C          0.000001    0.709612    1.977802
 H         -0.000002    3.430804    3.953551
 S         -0.000003   -1.846649    0.660926
 C         -0.000002   -3.211776    1.799433
 C         -0.000000   -2.737847    3.122487
 C         -0.000001   -1.345618    3.240005
 C         -0.000001   -0.709612    1.977802
 H          0.000002   -3.430804    3.953551
Si         -0.000000    0.000000    4.578708
 C          0.000001    4.566161    1.330727
 C         -0.000015    5.709930    2.209049
 N         -0.000044    5.700208    3.544568
 S         -0.000002    7.286713    4.034424
 N         -0.000068    8.022718    2.551082
 C         -0.000025    7.043283    1.639282
 C         -0.000013    7.202924    0.208591
 C         -0.000001   -4.566161    1.330727
 C          0.000015   -5.709930    2.209049
 N          0.000044   -5.700208    3.544568
 S          0.000002   -7.286713    4.034424
 N          0.000068   -8.022718    2.551082
 C          0.000025   -7.043283    1.639282
 C          0.000013   -7.202924    0.208591
 C         -0.000041    8.473615   -0.452386
 C         -0.000086    9.767738    0.061829
 C         -0.000148   10.761889   -0.929313
 C         -0.000154   10.261516   -2.228913
 S          0.000008    8.506011   -2.214143
 H         -0.000103    9.964504    1.125631
 H         -0.000229   11.823898   -0.707162
 C          0.000041   -8.473615   -0.452386
 C          0.000086   -9.767738    0.061829
 C          0.000148  -10.761889   -0.929313
 C          0.000154  -10.261516   -2.228913
 S         -0.000008   -8.506011   -2.214143
 H          0.000103   -9.964504    1.125631
 H          0.000229  -11.823898   -0.707162
 C         -0.000248   10.994931   -3.464257
 C         -0.000486   10.516333   -4.762543
 C         -0.000541   11.538045   -5.745652
 C         -0.000351   12.811053   -5.227445
 S         -0.000001   12.759136   -3.480093
 H         -0.000652    9.457737   -5.000136
 H         -0.000740   11.343634   -6.813255
 C          0.000248  -10.994931   -3.464257
 C          0.000486  -10.516333   -4.762543
 C          0.000541  -11.538045   -5.745652
 C          0.000351  -12.811053   -5.227445
 S          0.000001  -12.759136   -3.480093
 H          0.000652   -9.457737   -5.000136
 H          0.000740  -11.343634   -6.813255
 C          1.560339   -0.000002    5.632995
 H          1.591235    0.885856    6.278107
 H          1.591197   -0.885825    6.278158
 H          2.461603   -0.000040    5.011327
 C         -1.560339    0.000002    5.632995
 H         -1.591235   -0.885856    6.278107
 H         -1.591197    0.885825    6.278158
 H         -2.461603    0.000040    5.011327
 C         -0.000422   14.115403   -5.963762
 H         -0.884058   14.719450   -5.724087
 H          0.883028   14.719649   -5.723924
 H         -0.000306   13.929753   -7.041924
 C          0.000422  -14.115403   -5.963762
 H         -0.883028  -14.719649   -5.723924
 H          0.884058  -14.719450   -5.724087
 H          0.000306  -13.929753   -7.041924
 C          0.000014    4.885439   -0.043090
 C         -0.000014   -4.885439   -0.043090
 N          0.000008    6.106275   -0.576076
 N         -0.000008   -6.106275   -0.576076
 H          0.000023    4.075824   -0.771118
 H         -0.000023   -4.075824   -0.771118
