        79
S0: Total Energy = -5432.39933003
 S         -1.848584    0.447667   -0.007679
 C         -3.222907    1.575312   -0.012978
 C         -2.754959    2.887201   -0.010988
 C         -1.349088    3.010134   -0.005435
 C         -0.722614    1.763350   -0.002954
 H         -3.439502    3.724022   -0.013517
 S          1.848584    0.447667    0.007679
 C          3.222907    1.575312    0.012978
 C          2.754959    2.887201    0.010988
 C          1.349088    3.010134    0.005435
 C          0.722614    1.763350    0.002954
 H          3.439502    3.724022    0.013517
Si          0.000000    4.339460    0.000000
 C         -4.599620    1.113734   -0.018216
 C         -5.740122    2.006594   -0.022020
 N         -5.671376    3.339743   -0.020730
 S         -7.209727    3.914925   -0.025391
 N         -8.023997    2.490465   -0.029172
 C         -7.116617    1.512364   -0.027247
 C         -7.411422    0.097375   -0.028909
 C         -6.292484   -0.720667   -0.026035
 C         -4.978184   -0.221485   -0.020421
 F         -4.013710   -1.172943   -0.018349
 H         -6.386047   -1.801479   -0.030001
 C          4.599620    1.113734    0.018216
 C          5.740122    2.006594    0.022020
 N          5.671376    3.339743    0.020730
 S          7.209727    3.914925    0.025391
 N          8.023997    2.490465    0.029172
 C          7.116617    1.512364    0.027247
 C          7.411422    0.097375    0.028909
 C          6.292484   -0.720667    0.026035
 C          4.978184   -0.221485    0.020421
 F          4.013710   -1.172943    0.018350
 H          6.386047   -1.801479    0.030001
 C         -8.763270   -0.430136   -0.032021
 C         -9.975347    0.236551   -0.067510
 C        -11.101441   -0.617496   -0.066081
 C        -10.786785   -1.962673   -0.028416
 S         -9.045043   -2.172764    0.012725
 H        -10.039285    1.315250   -0.097481
 H        -12.122447   -0.252283   -0.099214
 C          8.763270   -0.430136    0.032021
 C          9.975347    0.236551    0.067510
 C         11.101441   -0.617496    0.066081
 C         10.786785   -1.962673    0.028416
 S          9.045043   -2.172764   -0.012726
 H         10.039285    1.315250    0.097482
 H         12.122447   -0.252283    0.099215
 C        -11.671067   -3.104578   -0.017210
 C        -11.363277   -4.447049   -0.081173
 C        -12.503922   -5.296000   -0.046311
 C        -13.695489   -4.623400    0.043673
 S        -13.416821   -2.895981    0.091645
 H        -10.346093   -4.817115   -0.158077
 H        -12.446366   -6.378860   -0.089486
 C         11.671067   -3.104578    0.017210
 C         11.363277   -4.447049    0.081173
 C         12.503922   -5.296000    0.046311
 C         13.695489   -4.623400   -0.043673
 S         13.416821   -2.895981   -0.091645
 H         10.346093   -4.817115    0.158078
 H         12.446366   -6.378860    0.089486
 C          0.006445    5.406347   -1.555773
 H         -0.879162    6.052006   -1.589088
 H          0.892234    6.052116   -1.581490
 H          0.010374    4.788633   -2.460009
 C         -0.006445    5.406347    1.555773
 H          0.879162    6.052006    1.589088
 H         -0.892234    6.052116    1.581490
 H         -0.010374    4.788633    2.460009
 C        -15.083924   -5.184888    0.099413
 H        -15.604470   -4.898280    1.021209
 H        -15.697569   -4.842736   -0.742756
 H        -15.040287   -6.277559    0.062750
 C         15.083924   -5.184888   -0.099414
 H         15.697569   -4.842736    0.742756
 H         15.604470   -4.898280   -1.021209
 H         15.040287   -6.277559   -0.062750
        79
T1: Total Energy = -5432.36309484
 S          0.000014   -1.843832    0.354399
 C          0.000041   -3.216293    1.498686
 C          0.000043   -2.724210    2.830860
 C          0.000025   -1.343589    2.943786
 C          0.000011   -0.703157    1.671265
 H          0.000062   -3.411298    3.665369
 S         -0.000014    1.843832    0.354399
 C         -0.000041    3.216293    1.498686
 C         -0.000043    2.724210    2.830860
 C         -0.000025    1.343589    2.943786
 C         -0.000011    0.703157    1.671265
 H         -0.000062    3.411298    3.665369
Si         -0.000000   -0.000000    4.282919
 C          0.000055   -4.572715    1.073839
 C          0.000103   -5.704040    1.990090
 N          0.000185   -5.613704    3.317046
 S          0.000214   -7.152825    3.924328
 N          0.000132   -7.984303    2.497051
 C          0.000079   -7.086916    1.511302
 C         -0.000006   -7.397089    0.099403
 C         -0.000025   -6.275763   -0.752373
 C          0.000005   -4.976337   -0.282514
 F         -0.000017   -4.007268   -1.230606
 H         -0.000058   -6.396382   -1.830276
 C         -0.000055    4.572715    1.073839
 C         -0.000103    5.704040    1.990090
 N         -0.000185    5.613704    3.317046
 S         -0.000214    7.152825    3.924328
 N         -0.000132    7.984303    2.497051
 C         -0.000079    7.086916    1.511302
 C          0.000006    7.397089    0.099403
 C          0.000025    6.275763   -0.752373
 C         -0.000005    4.976337   -0.282514
 F          0.000017    4.007268   -1.230606
 H          0.000058    6.396382   -1.830276
 C         -0.000067   -8.738657   -0.409226
 C         -0.000012   -9.953114    0.274486
 C         -0.000102  -11.082419   -0.562752
 C         -0.000236  -10.785601   -1.918215
 S         -0.000244   -9.045085   -2.153444
 H          0.000087  -10.000500    1.354252
 H         -0.000096  -12.099772   -0.185741
 C          0.000067    8.738657   -0.409226
 C          0.000012    9.953114    0.274486
 C          0.000102   11.082419   -0.562752
 C          0.000236   10.785601   -1.918215
 S          0.000244    9.045085   -2.153444
 H         -0.000087   10.000500    1.354252
 H          0.000096   12.099772   -0.185741
 C         -0.000357  -11.685361   -3.041311
 C         -0.000935  -11.396072   -4.392172
 C         -0.000854  -12.548975   -5.221827
 C         -0.000213  -13.733928   -4.529377
 S          0.000293  -13.432690   -2.805562
 H         -0.001426  -10.382202   -4.778690
 H         -0.001259  -12.507070   -6.306242
 C          0.000357   11.685361   -3.041311
 C          0.000935   11.396072   -4.392172
 C          0.000854   12.548975   -5.221827
 C          0.000213   13.733928   -4.529377
 S         -0.000293   13.432690   -2.805562
 H          0.001426   10.382202   -4.778690
 H          0.001259   12.507070   -6.306242
 C         -1.558868   -0.000031    5.340818
 H         -1.589429   -0.885854    5.986110
 H         -1.589475    0.885803    5.986093
 H         -2.460907   -0.000061    4.720148
 C          1.558868    0.000031    5.340818
 H          1.589429    0.885854    5.986110
 H          1.589475   -0.885803    5.986093
 H          2.460907    0.000061    4.720148
 C          0.000026  -15.131260   -5.070237
 H          0.883806  -15.694528   -4.746879
 H         -0.883400  -15.694929   -4.746606
 H         -0.000151  -15.102376   -6.163953
 C         -0.000026   15.131260   -5.070237
 H          0.883400   15.694929   -4.746606
 H         -0.883806   15.694528   -4.746879
 H          0.000151   15.102376   -6.163953
        79
S1: Total Energy = -5432.34450910
 S         -0.000120   -1.843792    0.379727
 C         -0.000075   -3.215000    1.517250
 C         -0.000002   -2.734074    2.842759
 C          0.000010   -1.344576    2.959868
 C         -0.000010   -0.709333    1.696013
 H          0.000030   -3.423432    3.675302
 S          0.000120    1.843792    0.379727
 C          0.000075    3.215000    1.517250
 C          0.000002    2.734074    2.842759
 C         -0.000010    1.344576    2.959868
 C          0.000010    0.709333    1.696013
 H         -0.000030    3.423432    3.675302
Si          0.000000   -0.000000    4.298090
 C         -0.000077   -4.580945    1.078803
 C          0.000382   -5.709984    1.990152
 N          0.000820   -5.620289    3.321164
 S          0.001246   -7.164663    3.920482
 N          0.000909   -7.994227    2.490680
 C          0.000434   -7.088625    1.507399
 C         -0.000031   -7.390103    0.095584
 C         -0.000507   -6.271398   -0.752624
 C         -0.000507   -4.970016   -0.272297
 F         -0.000962   -3.997910   -1.217620
 H         -0.000857   -6.386376   -1.831018
 C          0.000077    4.580945    1.078803
 C         -0.000382    5.709984    1.990152
 N         -0.000820    5.620289    3.321164
 S         -0.001246    7.164663    3.920482
 N         -0.000909    7.994227    2.490680
 C         -0.000434    7.088625    1.507399
 C          0.000031    7.390103    0.095584
 C          0.000507    6.271398   -0.752624
 C          0.000507    4.970016   -0.272297
 F          0.000962    3.997910   -1.217620
 H          0.000857    6.386376   -1.831018
 C         -0.000011   -8.732779   -0.417444
 C          0.000869   -9.948299    0.263838
 C          0.000621  -11.075107   -0.575277
 C         -0.000462  -10.774798   -1.931559
 S         -0.001059   -9.034352   -2.162009
 H          0.001584   -9.996246    1.343595
 H          0.001038  -12.093421   -0.200857
 C          0.000011    8.732779   -0.417444
 C         -0.000869    9.948299    0.263838
 C         -0.000621   11.075107   -0.575277
 C          0.000462   10.774798   -1.931559
 S          0.001059    9.034352   -2.162009
 H         -0.001584    9.996246    1.343595
 H         -0.001038   12.093421   -0.200857
 C         -0.001056  -11.671957   -3.053728
 C         -0.004637  -11.381293   -4.406090
 C         -0.004031  -12.532345   -5.235490
 C          0.000003  -13.719063   -4.543374
 S          0.003214  -13.420420   -2.819987
 H         -0.007816  -10.367051   -4.791485
 H         -0.006559  -12.490197   -6.319879
 C          0.001056   11.671957   -3.053728
 C          0.004637   11.381293   -4.406090
 C          0.004031   12.532345   -5.235490
 C         -0.000003   13.719063   -4.543374
 S         -0.003214   13.420420   -2.819987
 H          0.007816   10.367051   -4.791485
 H          0.006559   12.490197   -6.319879
 C         -1.559319   -0.000024    5.355222
 H         -1.590101   -0.885887    6.000409
 H         -1.590134    0.885846    6.000398
 H         -2.461045   -0.000044    4.734098
 C          1.559319    0.000024    5.355222
 H          1.590101    0.885887    6.000409
 H          1.590134   -0.885846    6.000398
 H          2.461045    0.000044    4.734098
 C          0.001680  -15.114992   -5.086603
 H          0.886874  -15.677304   -4.765209
 H         -0.880143  -15.680698   -4.761908
 H         -0.000420  -15.084548   -6.180216
 C         -0.001680   15.114992   -5.086603
 H          0.880143   15.680698   -4.761908
 H         -0.886874   15.677304   -4.765209
 H          0.000420   15.084548   -6.180216
