        96
S0: Total Energy = -6031.61891887
 C          5.245126    1.129750    0.036208
 C          4.460379    2.277122    0.038151
 C          3.066574    2.034560    0.039553
 C          2.772254    0.676027    0.039003
 C          1.374542    0.247006    0.039682
 C          0.460047    1.339140    0.039989
 C         -0.907756    1.078602    0.039902
 S          4.201236   -0.308609    0.036217
 H          4.907056    3.261595    0.038436
 H         -1.622708    1.899860    0.039937
 C         -5.245127   -1.129744    0.036395
 C         -4.460381   -2.277116    0.038482
 C         -3.066575   -2.034556    0.039842
 C         -2.772255   -0.676023    0.039123
 C         -1.374543   -0.247002    0.039730
 C         -0.460048   -1.339136    0.040162
 C          0.907755   -1.078599    0.040024
 S         -4.201236    0.308614    0.036242
 H         -4.907059   -3.261589    0.038888
 H          1.622707   -1.899856    0.040152
 C          1.146928    4.003877    1.594971
 H          1.831270    4.860131    1.626384
 H          0.122837    4.395072    1.622161
 H          1.306801    3.409163    2.500603
 C          1.146428    4.005452   -1.512841
 H          1.306006    3.411651   -2.419122
 H          0.122333    4.396685   -1.539311
 H          1.830769    4.861733   -1.543616
 C         -1.146450   -4.005644   -1.512327
 H         -0.122355   -4.396879   -1.538762
 H         -1.830791   -4.861928   -1.542985
 H         -1.306040   -3.411956   -2.418681
 C         -1.146911   -4.003677    1.595485
 H         -1.831253   -4.859927    1.627014
 H         -0.122820   -4.394870    1.622710
 H         -1.306772   -3.408850    2.501044
 C         -6.695900   -1.033911    0.034195
 C         -7.570627   -2.188257    0.040324
 C         -7.402752    0.159614    0.026023
 N         -7.163629   -3.459787    0.048675
 C         -9.027829   -2.062619    0.037275
 C         -8.801869    0.306197    0.023404
 F         -6.715806    1.327255    0.021643
 S         -8.503791   -4.408790    0.051772
 N         -9.655340   -3.239985    0.042584
 C         -9.674402   -0.770047    0.027461
 H         -9.168415    1.327272    0.020709
 C        -11.116586   -0.605718    0.020212
 C        -12.117822   -1.558930    0.075407
 S        -11.834172    1.005166   -0.067523
 C        -13.424993   -1.021378    0.056445
 H        -11.903796   -2.617031    0.131900
 C        -13.464536    0.358033   -0.015642
 H        -14.318794   -1.634546    0.101982
 C        -14.611347    1.235390   -0.053720
 C        -14.657429    2.612985   -0.022353
 S        -16.245019    0.584821   -0.157028
 C        -15.977025    3.140963   -0.077686
 H        -13.769212    3.232670    0.045446
 C        -16.956431    2.184121   -0.150994
 H        -16.198358    4.203279   -0.061077
 C        -18.441937    2.370206   -0.220479
 H        -18.866028    1.938722   -1.135287
 H        -18.953113    1.902080    0.629504
 H        -18.679640    3.438199   -0.210068
 C          6.695899    1.033917    0.034024
 C          7.570627    2.188263    0.040024
 C          7.402750   -0.159610    0.025991
 N          7.163631    3.459795    0.048227
 C          9.027829    2.062623    0.036998
 C          8.801867   -0.306194    0.023397
 F          6.715802   -1.327250    0.021741
 S          8.503794    4.408797    0.051226
 N          9.655342    3.239989    0.042176
 C          9.674400    0.770050    0.027337
 H          9.168412   -1.327270    0.020821
 C         11.116584    0.605719    0.020121
 C         12.117820    1.558937    0.075214
 S         11.834172   -1.005176   -0.067411
 C         13.424991    1.021384    0.056331
 H         11.903793    2.617045    0.131578
 C         13.464536   -0.358036   -0.015591
 H         14.318791    1.634557    0.101802
 C         14.611348   -1.235397   -0.053549
 C         14.657429   -2.612989   -0.022046
 S         16.245023   -0.584838   -0.156866
 C         15.977026   -3.140972   -0.077284
 H         13.769209   -3.232667    0.045783
 C         16.956435   -2.184138   -0.150654
 H         16.198359   -4.203287   -0.060565
 C         18.441943   -2.370229   -0.220073
 H         18.866064   -1.938836   -1.134909
 H         18.953091   -1.902019    0.629881
 H         18.679647   -3.438221   -0.209547
Si         -1.434060   -2.971608    0.040879
Si          1.434058    2.971612    0.040491
        96
T1: Total Energy = -6031.57893833
 C          5.260188    1.083937    0.000066
 C          4.453685    2.249595    0.000107
 C          3.080528    2.008166    0.000079
 C          2.777222    0.634537    0.000022
 C          1.393587    0.221711   -0.000013
 C          0.476649    1.321170    0.000019
 C         -0.887911    1.063642   -0.000017
 S          4.205287   -0.359665    0.000010
 H          4.911717    3.228418    0.000156
 H         -1.601927    1.885427    0.000013
 C         -5.225235   -1.131058   -0.000172
 C         -4.443037   -2.283384   -0.000174
 C         -3.051680   -2.046140   -0.000142
 C         -2.751598   -0.685130   -0.000115
 C         -1.359666   -0.263700   -0.000080
 C         -0.445070   -1.362777   -0.000101
 C          0.918448   -1.108161   -0.000068
 S         -4.178941    0.304482   -0.000147
 H         -4.894212   -3.265719   -0.000176
 H          1.632124   -1.930176   -0.000082
 C          1.172341    3.983368    1.556916
 H          1.861555    4.835557    1.586772
 H          0.150386    4.379592    1.587650
 H          1.332319    3.386117    2.460749
 C          1.172387    3.983478   -1.556655
 H          1.332355    3.386279   -2.460524
 H          0.150447    4.379743   -1.587375
 H          1.861633    4.835644   -1.586448
 C         -1.142082   -4.024012   -1.555604
 H         -0.120109   -4.420502   -1.582620
 H         -1.830964   -4.876500   -1.587847
 H         -1.298627   -3.427422   -2.460522
 C         -1.142127   -4.024150    1.555186
 H         -1.831001   -4.876650    1.587312
 H         -0.120150   -4.420629    1.582232
 H         -1.298738   -3.427643    2.460148
 C         -6.673895   -1.033442   -0.000164
 C         -7.550739   -2.186465    0.000043
 C         -7.378327    0.163246   -0.000348
 N         -7.146834   -3.458679    0.000266
 C         -9.007315   -2.056928    0.000055
 C         -8.775636    0.313124   -0.000358
 F         -6.687084    1.327691   -0.000548
 S         -8.489653   -4.404787    0.000469
 N         -9.637784   -3.232498    0.000285
 C         -9.651000   -0.762375   -0.000157
 H         -9.140200    1.334828   -0.000557
 C        -11.091334   -0.594348   -0.000139
 C        -12.095632   -1.547051   -0.000257
 S        -11.805119    1.020901    0.000029
 C        -13.400701   -1.006302   -0.000270
 H        -11.884265   -2.607183   -0.000356
 C        -13.436852    0.375795   -0.000154
 H        -14.295930   -1.619066   -0.000398
 C        -14.581285    1.256150   -0.000149
 C        -14.621407    2.634624   -0.000741
 S        -16.220224    0.610539    0.000692
 C        -15.940053    3.166759   -0.000554
 H        -13.729123    3.252215   -0.001349
 C        -16.924978    2.212459    0.000177
 H        -16.156998    4.230069   -0.000969
 C        -18.411425    2.403445    0.000597
 H        -18.881725    1.954224   -0.882511
 H        -18.881028    1.955690    0.884823
 H        -18.644879    3.472402   -0.000193
 C          6.676860    1.010517    0.000073
 C          7.538293    2.182659    0.000095
 C          7.406255   -0.224389    0.000041
 N          7.110978    3.441803    0.000141
 C          8.996450    2.064928    0.000076
 C          8.763539   -0.358211    0.000028
 F          6.683447   -1.373043    0.000016
 S          8.458145    4.429807    0.000146
 N          9.626806    3.237673    0.000097
 C          9.643974    0.771404    0.000041
 H          9.158934   -1.367660   -0.000017
 C         11.051565    0.608337    0.000032
 C         12.070292    1.579205   -0.000048
 S         11.785844   -1.009696    0.000122
 C         13.361976    1.050164   -0.000062
 H         11.841025    2.635240   -0.000107
 C         13.414504   -0.344776    0.000008
 H         14.255396    1.666032   -0.000132
 C         14.562842   -1.199209    0.000016
 C         14.622564   -2.583631    0.000128
 S         16.197816   -0.533335   -0.000130
 C         15.944340   -3.095771    0.000103
 H         13.737674   -3.211350    0.000234
 C         16.919273   -2.127228   -0.000029
 H         16.176597   -4.155803    0.000184
 C         18.406905   -2.302286   -0.000100
 H         18.871375   -1.847842   -0.883748
 H         18.871499   -1.847536    0.883323
 H         18.652683   -3.368396    0.000065
Si         -1.424157   -2.993733   -0.000167
Si          1.449027    2.955287    0.000100
        96
S1: Total Energy = -6031.56098938
 C          5.232220    1.100817    0.004339
 C          4.440118    2.261959    0.004094
 C          3.060761    2.025646    0.005261
 C          2.754697    0.653450    0.006248
 C          1.378688    0.242068    0.006841
 C          0.457399    1.346285    0.006755
 C         -0.901280    1.091483    0.006901
 S          4.186279   -0.338186    0.006180
 H          4.898511    3.240691    0.002930
 H         -1.616336    1.912081    0.006801
 C         -5.232223   -1.100839    0.004479
 C         -4.440122   -2.261981    0.004367
 C         -3.060764   -2.025668    0.005503
 C         -2.754700   -0.653471    0.006332
 C         -1.378691   -0.242090    0.006873
 C         -0.457402   -1.346306    0.006910
 C          0.901277   -1.091505    0.007022
 S         -4.186282    0.338165    0.006157
 H         -4.898514   -3.240713    0.003317
 H          1.616333   -1.912103    0.007015
 C          1.158349    4.005954    1.563234
 H          1.850207    4.855901    1.594822
 H          0.137666    4.405422    1.592472
 H          1.315072    3.407358    2.466703
 C          1.156612    4.005097   -1.551852
 H          1.312366    3.406029   -2.455176
 H          0.135886    4.404520   -1.580188
 H          1.848403    4.855051   -1.584649
 C         -1.156625   -4.005289   -1.551402
 H         -0.135899   -4.404713   -1.579702
 H         -1.848416   -4.855248   -1.584100
 H         -1.312387   -3.406319   -2.454789
 C         -1.158342   -4.005806    1.563685
 H         -1.850202   -4.855748    1.595371
 H         -0.137661   -4.405273    1.592958
 H         -1.315056   -3.407111    2.467091
 C         -6.669016   -1.014888    0.002976
 C         -7.534187   -2.177949   -0.001107
 C         -7.380832    0.194944    0.004948
 N         -7.115511   -3.445520   -0.003262
 C         -8.989939   -2.054298   -0.003510
 C         -8.762579    0.336793    0.003082
 F         -6.677086    1.354475    0.008816
 S         -8.462605   -4.410201   -0.008004
 N         -9.622691   -3.231975   -0.007408
 C         -9.633541   -0.762307   -0.001372
 H         -9.142056    1.352718    0.004749
 C        -11.063737   -0.600448   -0.003735
 C        -12.070441   -1.561658   -0.012243
 S        -11.789556    1.013846    0.003932
 C        -13.372050   -1.028706   -0.012639
 H        -11.848279   -2.619408   -0.017851
 C        -13.418366    0.358279   -0.004269
 H        -14.265008   -1.645078   -0.018475
 C        -14.566145    1.224747   -0.001872
 C        -14.618936    2.606053    0.012837
 S        -16.202126    0.566155   -0.019047
 C        -15.940054    3.125563    0.010596
 H        -13.731596    3.230418    0.025377
 C        -16.918500    2.162343   -0.005793
 H        -16.166755    4.186809    0.020912
 C        -18.405682    2.342876   -0.012596
 H        -18.867190    1.900405   -0.903891
 H        -18.877648    1.880640    0.863052
 H        -18.647210    3.409962   -0.002112
 C          6.669013    1.014871    0.002842
 C          7.534177    2.177936   -0.001395
 C          7.380836   -0.194957    0.004969
 N          7.115493    3.445504   -0.003710
 C          8.989930    2.054293   -0.003792
 C          8.762584   -0.336798    0.003117
 F          6.677098   -1.354493    0.008989
 S          8.462580    4.410192   -0.008584
 N          9.622674    3.231974   -0.007845
 C          9.633539    0.762307   -0.001487
 H          9.142067   -1.352721    0.004911
 C         11.063737    0.600456   -0.003835
 C         12.070434    1.561671   -0.012538
 S         11.789566   -1.013831    0.004123
 C         13.372047    1.028728   -0.012858
 H         11.848265    2.619418   -0.018338
 C         13.418372   -0.358255   -0.004230
 H         14.265000    1.645104   -0.018824
 C         14.566157   -1.224716   -0.001687
 C         14.618957   -2.606019    0.013303
 S         16.202133   -0.566117   -0.019038
 C         15.940078   -3.125521    0.011137
 H         13.731621   -3.230387    0.025993
 C         16.918518   -2.162298   -0.005473
 H         16.166786   -4.186764    0.021665
 C         18.405701   -2.342823   -0.012271
 H         18.867185   -1.900537   -0.903669
 H         18.877683   -1.880400    0.863269
 H         18.647235   -3.409906   -0.001567
Si         -1.434205   -2.979545    0.006155
Si          1.434202    2.979523    0.005814
