       108
S0: Total Energy = -7491.37067461
 S         -7.001981   -0.977636   -0.000056
 C         -8.709396   -1.424926   -0.000082
 C         -8.866395   -2.807206   -0.000020
 C         -7.648964   -3.519152    0.000027
 C         -6.549017   -2.652614    0.000005
 H         -9.848278   -3.263606   -0.000017
 S         -3.663903   -2.551485    0.000046
 C         -2.922296   -4.153681    0.000066
 C         -3.889518   -5.154232    0.000075
 C         -5.212896   -4.667985    0.000050
 C         -5.244074   -3.267782    0.000026
 H         -3.617444   -6.202259    0.000089
Si         -6.999490   -5.298742    0.000065
 C         -9.689464   -0.365375   -0.000157
 C        -11.117026   -0.588543   -0.000192
 N        -11.742587   -1.767960   -0.000136
 S        -13.353521   -1.449779   -0.000247
 N        -13.308030    0.193130   -0.000249
 C        -12.018473    0.548641   -0.000257
 C        -11.485003    1.885906   -0.000290
 C        -10.092224    1.937341   -0.000273
 H         -9.596683    2.905782   -0.000340
 C         -1.482335   -4.236475    0.000072
 C         -0.746787   -5.480272    0.000067
 N         -1.260042   -6.712541    0.000043
 N          1.248428   -6.675662    0.000025
 C          0.704260   -5.453846    0.000054
 C          1.398141   -4.191533    0.000049
 C          0.551036   -3.083357    0.000057
 H          0.983130   -2.084904    0.000044
 C        -12.314434    3.075238   -0.000333
 C        -13.693801    3.181859   -0.000894
 C        -14.167233    4.513848   -0.000832
 C        -13.165983    5.466037   -0.000205
 S        -11.592511    4.686564    0.000365
 H        -14.339259    2.314101   -0.001365
 H        -15.221873    4.768163   -0.001288
 C        -13.278659    6.905861    0.000025
 C        -12.282252    7.858845   -0.000024
 C        -12.770360    9.194820    0.000269
 C        -14.138328    9.287489    0.000537
 S        -14.855976    7.690737    0.000460
 H        -11.226139    7.609632   -0.000299
 H        -12.125885   10.067978    0.000268
 C         -7.452843   -6.260104    1.557543
 H         -8.529243   -6.466555    1.587766
 H         -6.927177   -7.221823    1.588227
 H         -7.188886   -5.699696    2.460515
 C         -7.452868   -6.260152   -1.557377
 H         -6.927119   -7.221825   -1.588096
 H         -8.529252   -6.466698   -1.587521
 H         -7.189026   -5.699724   -2.460369
 C        -14.991753   10.519449    0.000784
 H        -15.639261   10.568942   -0.883080
 H        -15.639822   10.568217    0.884271
 H        -14.353767   11.408418    0.001347
 N         -9.243767    0.888277   -0.000198
 C          2.842813   -4.075165    0.000027
 S          3.623418   -2.484102    0.000073
 C          3.803753   -5.080381   -0.000027
 C          5.196537   -3.219198    0.000023
 C          5.136820   -4.613319   -0.000029
 H          3.520485   -6.124794   -0.000059
 C          6.509177   -2.620447    0.000014
Si          6.914320   -5.271799   -0.000116
 S          6.987623   -0.953172    0.000108
 C          7.595251   -3.504271   -0.000062
 C          7.349491   -6.241704   -1.557563
 C          7.349621   -6.241822    1.557222
 C          8.689246   -1.426487    0.000057
 C          8.823552   -2.811153   -0.000037
 H          8.422076   -6.467160   -1.588179
 H          6.806697   -7.193858   -1.587768
 H          7.095228   -5.676857   -2.460555
 H          6.806749   -7.193930    1.587457
 H          8.422191   -6.467373    1.587675
 H          7.095535   -5.676997    2.460278
 C          9.683692   -0.381742    0.000120
 H          9.798084   -3.283180   -0.000084
 C         11.108341   -0.625523    0.000097
 N          9.256448    0.878752    0.000204
 N         11.716226   -1.813906   -0.000015
 C         12.026493    0.498400    0.000158
 C         10.120867    1.914822    0.000273
 S         13.332001   -1.519803    0.000060
 N         13.310672    0.123989    0.000091
 C         11.512541    1.843174    0.000242
 H          9.639819    2.890619    0.000377
 C         12.359468    3.020554    0.000287
 C         13.740024    3.107394    0.000812
 S         11.660814    4.642113   -0.000354
 C         14.232628    4.432770    0.000766
 H         14.372929    2.230431    0.001246
 C         13.245443    5.399184    0.000187
 H         15.290869    4.671813    0.001194
 C         13.378160    6.837435   -0.000012
 C         12.395163    7.804138    0.000044
 S         14.966232    7.600450   -0.000402
 C         12.901757    9.133357   -0.000224
 H         11.335690    7.569590    0.000299
 C         14.270764    9.207174   -0.000480
 H         12.269330   10.015306   -0.000220
 C         15.141242   10.427151   -0.000708
 H         15.789382   10.467736    0.883156
 H         15.789959   10.467012   -0.884176
 H         14.515711   11.324941   -0.001276
 S          0.008596   -7.754983    0.000114
 N         -0.797123   -3.095073    0.000066
       108
T1: Total Energy = -7491.34050424
 S          6.966587   -0.947808   -0.000151
 C          8.674184   -1.409551   -0.000250
 C          8.821468   -2.804954   -0.000334
 C          7.612411   -3.504237   -0.000315
 C          6.499769   -2.625781   -0.000222
 H          9.802762   -3.262603   -0.000397
 S          3.627038   -2.507541   -0.000040
 C          2.886201   -4.120614   -0.000030
 C          3.876540   -5.130689   -0.000127
 C          5.178566   -4.645419   -0.000213
 C          5.215104   -3.224334   -0.000173
 H          3.598476   -6.176956   -0.000134
Si          6.964825   -5.284947   -0.000348
 C          9.655690   -0.370085   -0.000205
 C         11.082826   -0.602862   -0.000264
 N         11.699911   -1.784874   -0.000394
 S         13.318649   -1.477431   -0.000402
 N         13.278618    0.170111   -0.000252
 C         11.991463    0.530123   -0.000183
 C         11.463706    1.869675   -0.000039
 C         10.063389    1.930885   -0.000000
 H          9.579320    2.905672    0.000122
 C          1.478440   -4.217704    0.000073
 C          0.745817   -5.463608    0.000122
 N          1.264134   -6.689818    0.000072
 N         -1.258500   -6.651782    0.000218
 C         -0.707580   -5.440233    0.000204
 C         -1.398007   -4.170126    0.000227
 C         -0.532691   -3.031181    0.000195
 H         -0.984433   -2.039921    0.000220
 C         12.293697    3.051807    0.000060
 C         13.676786    3.153014    0.000241
 C         14.155418    4.480336    0.000337
 C         13.158009    5.439374    0.000224
 S         11.579961    4.668611   -0.000041
 H         14.316386    2.280998    0.000322
 H         15.211180    4.730055    0.000526
 C         13.279825    6.876526    0.000286
 C         12.288430    7.836163    0.000728
 C         12.784302    9.168397    0.000648
 C         14.153352    9.252939    0.000152
 S         14.862039    7.652557   -0.000256
 H         11.230960    7.592953    0.001134
 H         12.145261   10.045508    0.000963
 C          7.411685   -6.244595   -1.559376
 H          8.487339   -6.454442   -1.591331
 H          6.882409   -7.204278   -1.589651
 H          7.147957   -5.682265   -2.461145
 C          7.411871   -6.244720    1.558549
 H          6.882567   -7.204388    1.588829
 H          8.487521   -6.454605    1.590344
 H          7.148283   -5.682446    2.460394
 C         15.013429   10.480093   -0.000023
 H         15.661664   10.525379    0.883528
 H         15.661382   10.525334   -0.883782
 H         14.380510   11.372640    0.000057
 N          9.212321    0.896266   -0.000081
 C         -2.808316   -4.038327    0.000262
 S         -3.592594   -2.437036    0.000226
 C         -3.792549   -5.054268    0.000312
 C         -5.168247   -3.175366    0.000280
 C         -5.103853   -4.590154    0.000323
 H         -3.500981   -6.096328    0.000336
 C         -6.462358   -2.592538    0.000262
Si         -6.880810   -5.259330    0.000356
 S         -6.954184   -0.923364    0.000179
 C         -7.557971   -3.488782    0.000293
 C         -7.308833   -6.224584    1.560394
 C         -7.308844   -6.224701   -1.559607
 C         -8.653071   -1.412005    0.000181
 C         -8.779474   -2.807526    0.000244
 H         -8.380590   -6.453279    1.592933
 H         -6.762614   -7.174643    1.590708
 H         -7.054526   -5.657008    2.461546
 H         -6.762595   -7.174744   -1.589872
 H         -8.380594   -6.453432   -1.592105
 H         -7.054576   -5.657176   -2.460802
 C         -9.651104   -0.384613    0.000099
 H         -9.753233   -3.280941    0.000255
 C        -11.074033   -0.637468    0.000076
 N         -9.226392    0.885529    0.000041
 N        -11.674911   -1.828373    0.000163
 C        -11.998077    0.482165   -0.000026
 C        -10.091618    1.910312   -0.000055
 S        -13.295987   -1.542970    0.000056
 N        -13.280004    0.103282   -0.000015
 C        -11.489893    1.829581   -0.000098
 H         -9.619860    2.890883   -0.000112
 C        -12.336772    2.999872   -0.000202
 C        -13.721047    3.081262   -0.000500
 S        -11.645685    4.626048    0.000057
 C        -14.218343    4.401510   -0.000553
 H        -14.348710    2.200577   -0.000689
 C        -13.233963    5.374269   -0.000291
 H        -15.277418    4.636494   -0.000808
 C        -13.375728    6.809537   -0.000266
 C        -12.397198    7.782380   -0.000408
 S        -14.968189    7.563858   -0.000007
 C        -12.910896    9.107569   -0.000338
 H        -11.336515    7.553552   -0.000588
 C        -14.281157    9.173316   -0.000145
 H        -12.283876    9.993267   -0.000441
 C        -15.157632   10.388765   -0.000075
 H        -15.806155   10.425150   -0.883774
 H        -15.806276   10.424969    0.883541
 H        -14.536892   11.289777    0.000057
 S         -0.013181   -7.753646    0.000244
 N          0.781911   -3.039970    0.000125
       108
S1: Total Energy = -7491.32570636
 S          6.975501   -0.955200    0.000092
 C          8.683350   -1.413414    0.000248
 C          8.832672   -2.806886    0.000277
 C          7.621879   -3.508134    0.000201
 C          6.512095   -2.632346    0.000107
 H          9.814596   -3.263074    0.000361
 S          3.638422   -2.519525   -0.000090
 C          2.897147   -4.128254   -0.000092
 C          3.877649   -5.134966   -0.000017
 C          5.187509   -4.650833    0.000055
 C          5.222912   -3.235778    0.000030
 H          3.599994   -6.181427   -0.000009
Si          6.973024   -5.288724    0.000187
 C          9.662736   -0.370140    0.000313
 C         11.088689   -0.600594    0.000465
 N         11.706891   -1.783107    0.000537
 S         13.327661   -1.472494    0.000829
 N         13.284156    0.178118    0.000571
 C         11.995415    0.533961    0.000477
 C         11.463199    1.871116    0.000336
 C         10.061170    1.930457    0.000233
 H          9.576249    2.905028    0.000152
 C          1.475964   -4.216495   -0.000157
 C          0.743309   -5.459684   -0.000165
 N          1.261873   -6.689953   -0.000109
 N         -1.260876   -6.649338   -0.000160
 C         -0.708323   -5.434118   -0.000193
 C         -1.394195   -4.165862   -0.000221
 C         -0.538693   -3.040948   -0.000232
 H         -0.982496   -2.046492   -0.000248
 C         12.288962    3.054237    0.000286
 C         13.673569    3.158649    0.000676
 C         14.148891    4.485346    0.000550
 C         13.149072    5.444264    0.000046
 S         11.572070    4.670390   -0.000326
 H         14.313517    2.286924    0.001070
 H         15.204146    4.737437    0.000868
 C         13.269931    6.879199   -0.000184
 C         12.276950    7.839272   -0.000151
 C         12.771624    9.170684   -0.000421
 C         14.141509    9.256469   -0.000660
 S         14.852004    7.657330   -0.000575
 H         11.219805    7.594894    0.000096
 H         12.132284   10.047564   -0.000427
 C          7.422683   -6.248594   -1.558272
 H          8.498627   -6.457139   -1.589100
 H          6.894626   -7.208971   -1.588887
 H          7.159204   -5.686862   -2.460490
 C          7.422469   -6.248544    1.558738
 H          6.894364   -7.208894    1.589339
 H          8.498400   -6.457137    1.589692
 H          7.158919   -5.686758    2.460901
 C         14.999614   10.484646   -0.000919
 H         15.647746   10.530760    0.882728
 H         15.647923   10.530274   -0.884458
 H         14.365648   11.376416   -0.001225
 N          9.213112    0.895517    0.000215
 C         -2.819899   -4.038828   -0.000217
 S         -3.600865   -2.442149   -0.000229
 C         -3.794159   -5.052048   -0.000190
 C         -5.177008   -3.178553   -0.000204
 C         -5.112744   -4.588121   -0.000181
 H         -3.502824   -6.094099   -0.000175
 C         -6.472601   -2.593032   -0.000195
Si         -6.888248   -5.259186   -0.000143
 S         -6.961472   -0.924849   -0.000214
 C         -7.568602   -3.489311   -0.000161
 C         -7.316928   -6.224452    1.559769
 C         -7.316977   -6.224503   -1.560009
 C         -8.662163   -1.411163   -0.000189
 C         -8.788927   -2.808132   -0.000155
 H         -8.388533   -6.453974    1.591385
 H         -6.769988   -7.174094    1.590516
 H         -7.063698   -5.656717    2.461111
 H         -6.769995   -7.174121   -1.590769
 H         -8.388573   -6.454075   -1.591556
 H         -7.063826   -5.656776   -2.461377
 C         -9.656419   -0.384694   -0.000199
 H         -9.763392   -3.280118   -0.000132
 C        -11.079645   -0.635475   -0.000172
 N         -9.226257    0.887712   -0.000212
 N        -11.680850   -1.826338   -0.000080
 C        -12.002201    0.485063   -0.000146
 C        -10.088179    1.910238   -0.000196
 S        -13.304162   -1.539434   -0.000287
 N        -13.285124    0.109644   -0.000056
 C        -11.490147    1.830860   -0.000147
 H         -9.617055    2.891397   -0.000210
 C        -12.330814    3.000732   -0.000090
 C        -13.718361    3.084732   -0.000262
 S        -11.637218    4.626816    0.000225
 C        -14.212355    4.402550   -0.000188
 H        -14.345528    2.203750   -0.000457
 C        -13.224888    5.376647    0.000055
 H        -15.270902    4.639829   -0.000341
 C        -13.367673    6.808103    0.000170
 C        -12.387677    7.782705    0.000020
 S        -14.960772    7.563130    0.000543
 C        -12.901076    9.105714    0.000210
 H        -11.327160    7.553516   -0.000237
 C        -14.272960    9.171094    0.000501
 H        -12.274923    9.991918    0.000131
 C        -15.147908   10.387087    0.000716
 H        -15.796539   10.423318   -0.882915
 H        -15.796659   10.422933    0.884270
 H        -14.526718   11.287671    0.000951
 S         -0.014853   -7.745024   -0.000222
 N          0.789667   -3.050193   -0.000200
