       110
S0: Total Energy = -6830.86191583
 C          5.227518   -0.830920   -0.041046
 C          4.784765    0.483144   -0.105602
 C          3.377789    0.588812   -0.087195
 C          2.738599   -0.633150   -0.008986
 C          1.300332   -0.474997    0.004973
 C          1.048720    0.922480   -0.069391
 C         -0.251869    1.405104   -0.075796
 S          3.857532   -1.955819    0.046881
 C          2.360378    1.718853   -0.135125
 H          5.466814    1.324937   -0.168503
 H         -0.457835    2.471099   -0.132733
 C         -5.227486    0.830804    0.039393
 C         -4.784735   -0.483259    0.103998
 C         -3.377759   -0.588931    0.085618
 C         -2.738566    0.633029    0.007393
 C         -1.300301    0.474875   -0.006581
 C         -1.048689   -0.922602    0.067785
 C          0.251900   -1.405226    0.074189
 S         -3.857495    1.955701   -0.048482
 C         -2.360349   -1.718973    0.133538
 H         -5.466784   -1.325056    0.166842
 H          0.457866   -2.471221    0.131127
 C          2.506662    2.665580    1.077523
 H          3.478158    3.172173    1.052540
 H          1.725170    3.433598    1.063672
 H          2.430492    2.114622    2.020262
 C          2.466264    2.522003   -1.451181
 H          2.362577    1.867794   -2.322607
 H          1.683024    3.286795   -1.499928
 H          3.436398    3.027930   -1.514105
 C         -2.506648   -2.665699   -1.079108
 H         -1.725158   -3.433719   -1.065265
 H         -3.478146   -3.172289   -1.054116
 H         -2.430486   -2.114742   -2.021849
 C         -2.466218   -2.522124    1.449595
 H         -3.436351   -3.028049    1.512532
 H         -1.682978   -3.286916    1.498332
 H         -2.362519   -1.867914    2.321019
 C         -6.578895    1.330912    0.035515
 C         -7.020845    2.642997    0.042803
 S         -7.943428    0.231878    0.017938
 C         -8.424327    2.773096    0.037387
 H         -6.348926    3.494618    0.057258
 C         -9.106524    1.565341    0.026048
 H         -8.937328    3.723928    0.044177
 C        -10.540726    1.345166    0.020125
 C        -11.515107    2.417560    0.024341
 C        -11.129757    0.093898    0.009404
 N        -11.217914    3.716823    0.034161
 C        -12.955646    2.163514    0.018028
 C        -12.523622   -0.151635    0.003302
 F        -10.366317   -1.016626    0.003797
 S        -12.633472    4.548457    0.035351
 N        -13.679177    3.283043    0.023387
 C        -13.504708    0.822902    0.007035
 F        -12.861096   -1.456156   -0.006907
 C        -14.928669    0.539657    0.000608
 C        -15.981864    1.441008    0.003852
 S        -15.565890   -1.111024   -0.013280
 C        -17.257188    0.837320   -0.004645
 H        -15.825632    2.510007    0.012058
 C        -17.222575   -0.544633   -0.014620
 H        -18.180672    1.406607   -0.003757
 C          6.578931   -1.331024   -0.037213
 C          7.020899   -2.643096   -0.045444
 S          7.943441   -0.231985   -0.018377
 C          8.424383   -2.773178   -0.039775
 H          6.348994   -3.494711   -0.060831
 C          9.106559   -1.565422   -0.027290
 H          8.937399   -3.723998   -0.047222
 C         10.540756   -1.345225   -0.020840
 C         11.515163   -2.417594   -0.025467
 C         11.129754   -0.093951   -0.009167
 N         11.218003   -3.716858   -0.036124
 C         12.955694   -2.163517   -0.018646
 C         12.523611    0.151611   -0.002579
 F         10.366286    1.016551   -0.003032
 S         12.633580   -4.548460   -0.037456
 N         13.679251   -3.283028   -0.024484
 C         13.504721   -0.822898   -0.006708
 F         12.861054    1.456134    0.008533
 C         14.928671   -0.539609    0.000186
 C         15.981906   -1.440914   -0.003414
 S         15.565819    1.111089    0.015219
 C         17.257202   -0.837177    0.005672
 H         15.825721   -2.509914   -0.012315
 C         17.222528    0.544769    0.016477
 H         18.180711   -1.406424    0.004559
 C        -18.324689   -1.479193   -0.025087
 C        -18.299263   -2.857640   -0.038505
 S        -19.992921   -0.912861   -0.021688
 C        -19.591374   -3.452328   -0.046078
 H        -17.378522   -3.431849   -0.043019
 C        -20.620832   -2.546741   -0.038626
 H        -19.757052   -4.524827   -0.056856
 C         18.324600    1.479372    0.027673
 C         18.299112    2.857816    0.041275
 S         19.992856    0.913107    0.025084
 C         19.591195    3.452554    0.049602
 H         17.378346    3.431988    0.045345
 C         20.620692    2.547009    0.042545
 H         19.756825    4.525058    0.060603
 C        -22.096461   -2.808996   -0.043256
 H        -22.588987   -2.392695    0.843894
 H        -22.586562   -2.375178   -0.923332
 H        -22.278056   -3.887977   -0.054213
 C         22.096309    2.809321    0.047969
 H         22.585958    2.375475    0.928284
 H         22.589321    2.393085   -0.838940
 H         22.277856    3.888308    0.059080
       110
T1: Total Energy = -6830.82243881
 C         -5.212278   -0.847059    0.057456
 C         -4.765919    0.468646    0.096704
 C         -3.360873    0.569428    0.081394
 C         -2.723583   -0.657995    0.030094
 C         -1.289969   -0.504939    0.019048
 C         -1.032283    0.896675    0.067175
 C          0.266431    1.373630    0.070878
 S         -3.846717   -1.978700   -0.002963
 C         -2.341647    1.697708    0.111364
 H         -5.445857    1.313193    0.140296
 H          0.477474    2.439249    0.108231
 C          5.234516    0.782735    0.004859
 C          4.779697   -0.545514   -0.039867
 C          3.386132   -0.643467   -0.032697
 C          2.742068    0.591019    0.017620
 C          1.314702    0.435453    0.025535
 C          1.056335   -0.966052   -0.023092
 C         -0.244048   -1.442366   -0.026933
 S          3.858547    1.916386    0.056291
 C          2.364041   -1.769567   -0.065815
 H          5.462087   -1.388106   -0.075628
 H         -0.455145   -2.507973   -0.063875
 C         -2.480740    2.620553   -1.120531
 H         -3.451746    3.128259   -1.109512
 H         -1.698580    3.387841   -1.117341
 H         -2.400801    2.051519   -2.052100
 C         -2.451405    2.526425    1.411294
 H         -2.352029    1.889543    2.295899
 H         -1.667506    3.291053    1.447532
 H         -3.421110    3.034388    1.459895
 C          2.500039   -2.693748    1.165300
 H          1.714726   -3.457708    1.160576
 H          3.469055   -3.205043    1.153991
 H          2.421572   -2.125531    2.097460
 C          2.475591   -2.596191   -1.366881
 H          3.443582   -3.107431   -1.413178
 H          1.688749   -3.357540   -1.406222
 H          2.380904   -1.957688   -2.250796
 C          6.566003    1.261368    0.013568
 C          7.020026    2.589432    0.054775
 S          7.938849    0.154671   -0.027924
 C          8.399863    2.722647    0.053490
 H          6.343451    3.437276    0.084926
 C          9.106347    1.495220    0.011421
 H          8.922278    3.667333    0.082004
 C         10.509309    1.305940    0.002207
 C         11.467116    2.398083    0.034753
 C         11.122093    0.017364   -0.038382
 N         11.146854    3.687864    0.072956
 C         12.911553    2.157479    0.028161
 C         12.476047   -0.205054   -0.044180
 F         10.333870   -1.080969   -0.073559
 S         12.569546    4.557717    0.099423
 N         13.632812    3.275492    0.061735
 C         13.466574    0.817499   -0.010803
 F         12.869050   -1.499037   -0.084319
 C         14.865081    0.547396   -0.014215
 C         15.922975    1.473201    0.015754
 S         15.537028   -1.098280   -0.057191
 C         17.194335    0.894066    0.005221
 H         15.740106    2.537177    0.044482
 C         17.187020   -0.498177   -0.032970
 H         18.109905    1.476009    0.025053
 C         -6.564445   -1.340865    0.060228
 C         -7.011649   -2.651400    0.094351
 S         -7.924581   -0.236782    0.015920
 C         -8.414853   -2.775847    0.088915
 H         -6.343293   -3.505270    0.128458
 C         -9.091810   -1.564905    0.050224
 H         -8.932290   -3.723889    0.115238
 C        -10.525152   -1.339672    0.037220
 C        -11.503447   -2.407664    0.071010
 C        -11.108652   -0.086378   -0.008688
 N        -11.211733   -3.707341    0.118139
 C        -12.942674   -2.147698    0.056929
 C        -12.501108    0.165015   -0.022361
 F        -10.340042    1.019629   -0.044627
 S        -12.631004   -4.532494    0.142463
 N        -13.670968   -3.263420    0.093840
 C        -13.486213   -0.805393    0.007954
 F        -12.833106    1.470039   -0.069266
 C        -14.908430   -0.516512   -0.007160
 C        -15.965586   -1.413284    0.019919
 S        -15.538813    1.135844   -0.066436
 C        -17.238062   -0.804946   -0.005738
 H        -15.813822   -2.482303    0.057449
 C        -17.197542    0.576382   -0.053045
 H        -18.163957   -1.370047    0.010160
 C         18.301943   -1.399614   -0.051892
 C         18.305650   -2.783772   -0.089310
 S         19.961993   -0.800795   -0.026963
 C         19.606118   -3.349350   -0.097914
 H         17.396213   -3.374947   -0.109812
 C         20.619075   -2.421663   -0.067488
 H         19.795116   -4.417602   -0.125780
 C        -18.295738    1.514596   -0.089071
 C        -18.264546    2.892349   -0.134863
 S        -19.966185    0.955195   -0.077609
 C        -19.554029    3.491796   -0.160492
 H        -17.341459    3.462623   -0.149578
 C        -20.587196    2.590571   -0.134812
 H        -19.715372    4.564370   -0.196930
 C         22.098492   -2.657097   -0.065979
 H         22.586251   -2.196426   -0.933690
 H         22.576199   -2.247982    0.832619
 H         22.300702   -3.731917   -0.096186
 C        -22.061710    2.858477   -0.149970
 H        -22.550983    2.405537   -1.020809
 H        -22.558212    2.465358    0.745478
 H        -22.239015    3.937563   -0.187284
       110
S1: Total Energy = -6830.80711144
 C         -5.209328   -0.823967    0.011457
 C         -4.761458    0.504914    0.026952
 C         -3.369171    0.607363    0.023134
 C         -2.718985   -0.629260    0.004077
 C         -1.303153   -0.472527   -0.000157
 C         -1.043073    0.937819    0.017976
 C          0.250188    1.413976    0.018715
 S         -3.837439   -1.956888   -0.008827
 C         -2.353081    1.737645    0.035490
 H         -5.446311    1.345954    0.041100
 H          0.462050    2.479619    0.032720
 C          5.209328    0.823972   -0.010871
 C          4.761458   -0.504909   -0.026380
 C          3.369171   -0.607358   -0.022540
 C          2.718985    0.629265   -0.003459
 C          1.303153    0.472532    0.000784
 C          1.043073   -0.937814   -0.017355
 C         -0.250188   -1.413972   -0.018088
 S          3.837439    1.956893    0.009439
 C          2.353081   -1.737640   -0.034886
 H          5.446311   -1.345949   -0.040540
 H         -0.462050   -2.479615   -0.032095
 C         -2.486412    2.632561   -1.217552
 H         -3.458342    3.137944   -1.222703
 H         -1.705567    3.400835   -1.224655
 H         -2.399294    2.044143   -2.136232
 C         -2.474818    2.592962    1.317173
 H         -2.379882    1.975915    2.216080
 H         -1.693236    3.360103    1.341259
 H         -3.446286    3.098321    1.346897
 C          2.486428   -2.632558    1.218153
 H          1.705583   -3.400832    1.225264
 H          3.458358   -3.137941    1.223291
 H          2.399321   -2.044142    2.136834
 C          2.474801   -2.592955   -1.316572
 H          3.446270   -3.098314   -1.346309
 H          1.693219   -3.360096   -1.340649
 H          2.379854   -1.975907   -2.215477
 C          6.547678    1.309452   -0.009523
 C          6.997751    2.628316   -0.002705
 S          7.916582    0.204845   -0.016193
 C          8.391491    2.755919   -0.003217
 H          6.326294    3.480710    0.001887
 C          9.077956    1.538278   -0.009962
 H          8.913211    3.701604    0.001116
 C         10.505112    1.326653   -0.010924
 C         11.469123    2.405812   -0.008404
 C         11.096433    0.061638   -0.013280
 N         11.161224    3.704279   -0.007063
 C         12.910117    2.154790   -0.007324
 C         12.474646   -0.177691   -0.011870
 F         10.319446   -1.043391   -0.016532
 S         12.584257    4.548357   -0.004598
 N         13.637518    3.274438   -0.005163
 C         13.456778    0.814517   -0.008184
 F         12.831641   -1.481176   -0.013671
 C         14.873644    0.535699   -0.004923
 C         15.928459    1.443841   -0.002981
 S         15.522367   -1.114149   -0.000952
 C         17.202778    0.847435    0.001866
 H         15.762742    2.511293   -0.004715
 C         17.177426   -0.537858    0.003917
 H         18.123853    1.420968    0.004204
 C         -6.547678   -1.309448    0.010092
 C         -6.997751   -2.628313    0.003433
 S         -7.916583   -0.204839    0.016500
 C         -8.391491   -2.755916    0.003871
 H         -6.326293   -3.480708   -0.000981
 C         -9.077956   -1.538274    0.010387
 H         -8.913211   -3.701601   -0.000355
 C        -10.505112   -1.326649    0.011203
 C        -11.469122   -2.405810    0.008815
 C        -11.096435   -0.061634    0.013265
 N        -11.161221   -3.704276    0.007760
 C        -12.910116   -2.154790    0.007565
 C        -12.474648    0.177693    0.011682
 F        -10.319449    1.043396    0.016371
 S        -12.584252   -4.548357    0.005347
 N        -13.637516   -3.274439    0.005569
 C        -13.456778   -0.814517    0.008107
 F        -12.831644    1.481178    0.013192
 C        -14.873645   -0.535702    0.004663
 C        -15.928459   -1.443845    0.002838
 S        -15.522368    1.114146    0.000259
 C        -17.202778   -0.847440   -0.002251
 H        -15.762741   -2.511296    0.004832
 C        -17.177427    0.537852   -0.004610
 H        -18.123852   -1.420975   -0.004526
 C         18.283462   -1.461618    0.009499
 C         18.268581   -2.842476    0.015184
 S         19.949639   -0.884166    0.010496
 C         19.563760   -3.427066    0.020380
 H         17.351673   -3.422643    0.015918
 C         20.587963   -2.514059    0.018793
 H         19.737401   -4.498403    0.025337
 C        -18.283462    1.461610   -0.010484
 C        -18.268583    2.842467   -0.016266
 S        -19.949638    0.884155   -0.011774
 C        -19.563762    3.427055   -0.021764
 H        -17.351676    3.422636   -0.016844
 C        -20.587964    2.514047   -0.020312
 H        -19.737403    4.498391   -0.026830
 C         22.064829   -2.767254    0.023141
 H         22.555644   -2.342924   -0.861296
 H         22.551797   -2.334874    0.905806
 H         22.253374   -3.845094    0.028466
 C        -22.064829    2.767239   -0.024968
 H        -22.551624    2.334790   -0.907695
 H        -22.555816    2.342976    0.859406
 H        -22.253375    3.845078   -0.030413
