       173
S0: Total Energy = -10438.6466137
 C         -6.647069    2.478058    0.069347
 C         -6.852340    1.106552    0.131768
 C         -8.218782    0.755590    0.114855
 C         -9.062839    1.846418    0.040122
 C        -10.450883    1.437678    0.024571
 C        -10.452663    0.017431    0.094283
 C        -11.648022   -0.686502    0.097634
 S         -8.193523    3.345311   -0.012519
 C         -9.021383   -0.535954    0.158172
 H         -6.033105    0.397114    0.189246
 H        -11.663726   -1.772306    0.151042
 C        -16.646864   -0.996839   -0.016371
 C        -16.442345    0.374759   -0.078599
 C        -15.075967    0.726452   -0.060991
 C        -14.231571   -0.364029    0.014093
 C        -12.843705    0.044991    0.029993
 C        -12.842056    1.465203   -0.039760
 C        -11.646646    2.169159   -0.043036
 S        -15.100030   -1.863302    0.066210
 C        -14.273558    2.018244   -0.104036
 H        -17.261964    1.083737   -0.136374
 H        -11.630940    3.254961   -0.096512
 C         -8.710727   -1.437113   -1.058289
 H         -7.665068   -1.764556   -1.035210
 H         -9.344634   -2.330870   -1.048001
 H         -8.883175   -0.904217   -1.998716
 C         -8.775396   -1.312860    1.471248
 H         -8.993124   -0.690558    2.345009
 H         -9.410983   -2.204307    1.516746
 H         -7.731095   -1.639501    1.532980
 C        -14.584779    2.919348    1.112310
 H        -13.951064    3.813245    1.102195
 H        -15.630502    3.246563    1.088896
 H        -14.412509    2.386508    2.052801
 C        -14.519318    2.795080   -1.417198
 H        -15.563672    3.121485   -1.479251
 H        -13.883917    3.686671   -1.462514
 H        -14.301188    2.172818   -2.290887
 C        -17.889203   -1.726801   -0.009884
 C        -18.093378   -3.095906    0.019189
 S        -19.425992   -0.885483   -0.037943
 C        -19.451966   -3.471139    0.018186
 H        -17.281989   -3.815757    0.038723
 C        -20.336148   -2.402705   -0.011831
 H        -19.789375   -4.497329    0.037885
 C        -21.786674   -2.438647   -0.020510
 C        -22.556963   -3.665646    0.002937
 C        -22.587001   -1.311078   -0.050875
 N        -22.035507   -4.891882    0.033081
 C        -24.019693   -3.669543   -0.004756
 C        -24.002332   -1.315108   -0.058393
 F        -22.031157   -0.083661   -0.075669
 S        -23.282324   -5.959796    0.050363
 N        -24.534650   -4.898803    0.019984
 C        -24.796405   -2.447057   -0.036203
 F        -24.564381   -0.090799   -0.089293
 C        -26.247985   -2.419387   -0.043025
 C        -27.125788   -3.492154   -0.023886
 S        -27.166192   -0.907283   -0.077848
 C        -28.487559   -3.122835   -0.036207
 H        -26.783561   -4.516669   -0.001236
 C        -28.697137   -1.756674   -0.065023
 H        -29.296201   -3.845928   -0.023765
 C         -5.403842    3.206319    0.061529
 C         -5.196844    4.575118    0.035173
 S         -3.868739    2.361722    0.083111
 C         -3.837489    4.947485    0.033072
 H         -6.006802    5.296688    0.019861
 C         -2.955337    3.877045    0.057936
 H         -3.497940    5.973004    0.014681
 C         -1.504963    3.909417    0.061066
 C         -0.731421    5.134294    0.035154
 C         -0.707361    2.779335    0.087089
 N         -1.249623    6.362002    0.009095
 C          0.731426    5.134293    0.035194
 C          0.707355    2.779326    0.087131
 F         -1.266714    1.553462    0.113827
 S          0.000000    7.426662   -0.013466
 N          1.249636    6.362001    0.009161
 C          1.504960    3.909411    0.061141
 F          1.266680    1.553450    0.113892
 C        -29.946798   -1.031203   -0.084017
 C        -30.165027    0.329970   -0.108307
 S        -31.488967   -1.882963   -0.077608
 C        -31.541804    0.687218   -0.121685
 H        -29.360059    1.057615   -0.116177
 C        -32.395205   -0.385822   -0.107874
 H        -31.894462    1.713426   -0.141021
 C        -33.893875   -0.388196   -0.115796
 H        -34.297709   -0.909874   -0.991993
 H        -34.307145   -0.876635    0.775049
 H        -34.262797    0.641707   -0.137099
 C          2.955335    3.877062    0.058078
 S          3.868737    2.361718    0.083196
 C          3.837496    4.947492    0.033315
 C          5.403831    3.206311    0.061683
 C          5.196855    4.575114    0.035426
 H          3.497963    5.973018    0.014979
 C          6.647074    2.478066    0.069461
 H          6.006820    5.296675    0.020184
 C          6.852336    1.106554    0.131783
 S          8.193525    3.345315   -0.012346
 C          8.218775    0.755583    0.114859
 H          6.033088    0.397126    0.189206
 C          9.062833    1.846418    0.040213
 C          9.021378   -0.535962    0.158107
 C         10.450878    1.437680    0.024665
 C         10.452658    0.017430    0.094281
 C          8.710745   -1.437048   -1.058412
 C          8.775370   -1.312947    1.471134
 C         11.646642    2.169168   -0.042871
 C         11.648018   -0.686503    0.097602
 H          9.344653   -2.330805   -1.048167
 H          7.665085   -1.764494   -1.035371
 H          8.883207   -0.904095   -1.998804
 H          7.731068   -1.639592    1.532826
 H          9.410959   -2.204395    1.516590
 H          8.993081   -0.690695    2.344935
 C         12.842053    1.465212   -0.039621
 H         11.630936    3.254973   -0.096271
 C         12.843701    0.044995    0.030032
 H         11.663720   -1.772311    0.150934
 C         14.273555    2.018259   -0.103835
 C         14.231568   -0.364023    0.014123
 C         15.075964    0.726465   -0.060868
 C         14.584757    2.919280    1.112575
 C         14.519334    2.795185   -1.416942
 S         15.100028   -1.863299    0.066145
 C         16.442343    0.374775   -0.078473
 H         15.630480    3.246497    1.089201
 H         13.951042    3.813177    1.102512
 H         14.412473    2.386376    2.053028
 H         14.301218    2.172981   -2.290676
 H         13.883933    3.686778   -1.462206
 H         15.563689    3.121595   -1.478956
 C         16.646862   -0.996827   -0.016336
 H         17.261963    1.083758   -0.136180
 C         17.889203   -1.726787   -0.009875
 C         18.093380   -3.095894    0.019107
 S         19.425991   -0.885464   -0.037849
 C         19.451969   -3.471124    0.018090
 H         17.281992   -3.815748    0.038577
 C         20.336148   -2.402687   -0.011852
 H         19.789379   -4.497315    0.037723
 C         21.786675   -2.438629   -0.020520
 C         22.556961   -3.665629    0.002958
 C         22.587005   -1.311062   -0.050914
 N         22.035501   -4.891863    0.033128
 C         24.019690   -3.669530   -0.004726
 C         24.002336   -1.315096   -0.058416
 F         22.031165   -0.083645   -0.075741
 S         23.282315   -5.959780    0.050441
 N         24.534644   -4.898791    0.020040
 C         24.796406   -2.447048   -0.036197
 F         24.564388   -0.090790   -0.089349
 C         26.247986   -2.419384   -0.043004
 C         27.125783   -3.492153   -0.023762
 S         27.166201   -0.907288   -0.077938
 C         28.487556   -3.122843   -0.036125
 H         26.783551   -4.516665   -0.001030
 C         28.697142   -1.756686   -0.065069
 H         29.296195   -3.845939   -0.023630
 C         29.946806   -1.031224   -0.084147
 C         30.165042    0.329944   -0.108685
 S         31.488971   -1.882989   -0.077528
 C         31.541821    0.687184   -0.122060
 H         29.360078    1.057591   -0.116731
 C         32.395217   -0.385857   -0.108001
 H         31.894484    1.713387   -0.141566
 C         33.893888   -0.388238   -0.115845
 H         34.307112   -0.876527    0.775103
 H         34.297762   -0.910067   -0.991933
 H         34.262814    0.641660   -0.137304
       173
T1: Total Energy = -10438.6089762
 C         -6.624927    2.303310    0.032210
 C         -6.856499    0.922459    0.054933
 C         -8.219249    0.598167    0.050237
 C         -9.052972    1.709833    0.023919
 C        -10.439419    1.324476    0.019252
 C        -10.465854   -0.099837    0.044456
 C        -11.672118   -0.781664    0.046367
 S         -8.165135    3.198365    0.004553
 C         -9.044133   -0.679929    0.066612
 H         -6.046574    0.200869    0.074254
 H        -11.707124   -1.868058    0.065718
 C        -16.673613   -1.000568    0.005545
 C        -16.446446    0.369860   -0.016685
 C        -15.075616    0.697228   -0.010167
 C        -14.247877   -0.410485    0.016943
 C        -12.856424   -0.026559    0.022422
 C        -12.830428    1.397663   -0.002869
 C        -11.625439    2.079798   -0.004608
 S        -15.141718   -1.896126    0.035365
 C        -14.252811    1.976247   -0.025841
 H        -17.254547    1.093787   -0.037265
 H        -11.590550    3.166200   -0.024071
 C         -8.768847   -1.547176   -1.182562
 H         -7.729294   -1.893693   -1.186012
 H         -9.419036   -2.429059   -1.189131
 H         -8.946149   -0.982297   -2.103151
 C         -8.789701   -1.501164    1.350795
 H         -8.981757   -0.903232    2.247229
 H         -9.440348   -2.382269    1.378722
 H         -7.750543   -1.847240    1.383741
 C        -14.529151    2.843551    1.223138
 H        -13.880940    3.726929    1.229780
 H        -15.569417    3.188149    1.226767
 H        -14.350768    2.279069    2.143785
 C        -14.506575    2.797979   -1.309905
 H        -15.546417    3.142081   -1.344298
 H        -13.857931    3.680634   -1.336796
 H        -14.312161    2.200767   -2.206335
 C        -17.928255   -1.707105    0.007162
 C        -18.157450   -3.072886    0.022461
 S        -19.449448   -0.837293   -0.011328
 C        -19.522228   -3.422883    0.019335
 H        -17.359426   -3.807662    0.035212
 C        -20.386565   -2.337464    0.001514
 H        -19.878891   -4.442647    0.029563
 C        -21.837459   -2.346829   -0.006019
 C        -22.630189   -3.559469    0.004544
 C        -22.616457   -1.203983   -0.023829
 N        -22.131824   -4.795520    0.021637
 C        -24.092620   -3.535719   -0.003041
 C        -24.031385   -1.181156   -0.031123
 F        -22.037309    0.012587   -0.035619
 S        -23.398617   -5.839922    0.027629
 N        -24.630592   -4.755215    0.008698
 C        -24.846418   -2.298518   -0.021431
 F        -24.570350    0.053698   -0.048659
 C        -26.296885   -2.243662   -0.028576
 C        -27.194658   -3.300164   -0.020810
 S        -27.186727   -0.714426   -0.048951
 C        -28.549086   -2.905492   -0.030610
 H        -26.871609   -4.331065   -0.008190
 C        -28.733093   -1.535224   -0.046111
 H        -29.371059   -3.613479   -0.026141
 C         -5.385137    2.997354    0.028267
 C         -5.156408    4.378286    0.009903
 S         -3.851882    2.130885    0.046345
 C         -3.812895    4.736399    0.010077
 H         -5.962268    5.104851   -0.003109
 C         -2.918244    3.644161    0.028348
 H         -3.454410    5.755043   -0.002702
 C         -1.499292    3.683627    0.031100
 C         -0.732275    4.916575    0.015143
 C         -0.686315    2.513481    0.048506
 N         -1.259428    6.137744   -0.000978
 C          0.732273    4.916576    0.015155
 C          0.686315    2.513482    0.048520
 F         -1.284766    1.300130    0.065951
 S         -0.000003    7.228210   -0.015271
 N          1.259425    6.137746   -0.000956
 C          1.499292    3.683629    0.031125
 F          1.284769    1.300132    0.065976
 C        -29.968903   -0.786486   -0.059038
 C        -30.161571    0.578795   -0.071838
 S        -31.526729   -1.609245   -0.059881
 C        -31.531307    0.961808   -0.082158
 H        -29.343182    1.291366   -0.073652
 C        -32.404637   -0.095247   -0.077421
 H        -31.864782    1.994521   -0.092796
 C        -33.903067   -0.069186   -0.085338
 H        -34.316518   -0.574367   -0.966688
 H        -34.325603   -0.558594    0.800591
 H        -34.252342    0.967688   -0.096367
 C          2.918244    3.644164    0.028389
 S          3.851882    2.130888    0.046389
 C          3.812895    4.736402    0.010131
 C          5.385137    2.997357    0.028325
 C          5.156408    4.378289    0.009966
 H          3.454411    5.755046   -0.002647
 C          6.624927    2.303312    0.032270
 H          5.962268    5.104854   -0.003037
 C          6.856499    0.922462    0.054992
 S          8.165136    3.198367    0.004616
 C          8.219249    0.598170    0.050296
 H          6.046574    0.200872    0.074311
 C          9.052972    1.709835    0.023979
 C          9.044134   -0.679927    0.066667
 C         10.439420    1.324478    0.019311
 C         10.465854   -0.099835    0.044511
 C          8.768845   -1.547172   -1.182507
 C          8.789703   -1.501164    1.350850
 C         11.625439    2.079800   -0.004550
 C         11.672118   -0.781662    0.046417
 H          9.419035   -2.429055   -1.189078
 H          7.729292   -1.893688   -1.185956
 H          8.946147   -0.982292   -2.103095
 H          7.750544   -1.847239    1.383797
 H          9.440350   -2.382269    1.378775
 H          8.981760   -0.903232    2.247284
 C         12.830429    1.397665   -0.002815
 H         11.590551    3.166202   -0.024010
 C         12.856424   -0.026556    0.022472
 H         11.707124   -1.868056    0.065766
 C         14.252812    1.976249   -0.025788
 C         14.247877   -0.410483    0.016988
 C         15.075616    0.697230   -0.010122
 C         14.529155    2.843549    1.223193
 C         14.506571    2.797985   -1.309851
 S         15.141718   -1.896124    0.035400
 C         16.446446    0.369862   -0.016646
 H         15.569421    3.188147    1.226819
 H         13.880943    3.726926    1.229840
 H         14.350775    2.279063    2.143838
 H         14.312156    2.200776   -2.206283
 H         13.857927    3.680641   -1.336737
 H         15.546413    3.142088   -1.344245
 C         16.673613   -1.000566    0.005577
 H         17.254547    1.093789   -0.037228
 C         17.928255   -1.707103    0.007184
 C         18.157450   -3.072885    0.022473
 S         19.449448   -0.837292   -0.011308
 C         19.522228   -3.422882    0.019339
 H         17.359425   -3.807660    0.035223
 C         20.386565   -2.337463    0.001522
 H         19.878891   -4.442646    0.029559
 C         21.837459   -2.346829   -0.006018
 C         22.630189   -3.559469    0.004531
 C         22.616457   -1.203982   -0.023822
 N         22.131823   -4.795520    0.021617
 C         24.092620   -3.535719   -0.003063
 C         24.031385   -1.181156   -0.031124
 F         22.037310    0.012589   -0.035599
 S         23.398616   -5.839922    0.027592
 N         24.630591   -4.755215    0.008664
 C         24.846418   -2.298518   -0.021448
 F         24.570351    0.053698   -0.048652
 C         26.296885   -2.243662   -0.028602
 C         27.194657   -3.300165   -0.020853
 S         27.186727   -0.714427   -0.048971
 C         28.549085   -2.905494   -0.030661
 H         26.871608   -4.331066   -0.008240
 C         28.733093   -1.535226   -0.046152
 H         29.371058   -3.613481   -0.026209
 C         29.968904   -0.786488   -0.059084
 C         30.161572    0.578792   -0.071926
 S         31.526730   -1.609247   -0.059877
 C         31.531308    0.961805   -0.082238
 H         29.343183    1.291363   -0.073778
 C         32.404638   -0.095251   -0.077456
 H         31.864783    1.994517   -0.092907
 C         33.903068   -0.069190   -0.085356
 H         34.325593   -0.558569    0.800594
 H         34.316530   -0.574400   -0.966683
 H         34.252343    0.967683   -0.096414
       173
S1: Total Energy = -10438.5949022
 C         -6.630408    2.369597    0.045308
 C         -6.852597    0.988288    0.075615
 C         -8.212602    0.655351    0.068558
 C         -9.055610    1.762305    0.032791
 C        -10.433452    1.369683    0.025614
 C        -10.452920   -0.058912    0.059515
 C        -11.651980   -0.746582    0.061412
 S         -8.173590    3.256316    0.007445
 C         -9.027385   -0.628442    0.090018
 H         -6.038168    0.272141    0.102026
 H        -11.681283   -1.832901    0.087545
 C        -16.647632   -0.996052    0.005540
 C        -16.428313    0.380373   -0.024841
 C        -15.065120    0.715953   -0.016278
 C        -14.225220   -0.389415    0.020572
 C        -12.843922    0.002431    0.028450
 C        -12.825144    1.430040   -0.005648
 C        -11.626509    2.118459   -0.007299
 S        -15.108537   -1.882019    0.045386
 C        -14.250734    1.999794   -0.037204
 H        -17.242010    1.097604   -0.052277
 H        -11.597407    3.204727   -0.033547
 C         -8.741209   -1.500993   -1.153098
 H         -7.698508   -1.837683   -1.151410
 H         -9.383229   -2.388815   -1.155530
 H         -8.921051   -0.943568   -2.077696
 C         -8.771034   -1.439660    1.380256
 H         -8.971783   -0.838109    2.272316
 H         -9.413820   -2.326381    1.410721
 H         -7.728955   -1.775936    1.419012
 C        -14.537323    2.872726    1.205601
 H        -13.894738    3.760091    1.208535
 H        -15.579765    3.210387    1.203076
 H        -14.358481    2.315318    2.130414
 C        -14.505507    2.811265   -1.327646
 H        -15.547261    3.148615   -1.367237
 H        -13.862050    3.697464   -1.357722
 H        -14.304435    2.209595   -2.219565
 C        -17.893335   -1.705765    0.008665
 C        -18.114693   -3.076180    0.033819
 S        -19.422529   -0.846352   -0.020435
 C        -19.473482   -3.434778    0.030023
 H        -17.311313   -3.804951    0.054277
 C        -20.348049   -2.353519    0.001860
 H        -19.824594   -4.456308    0.047221
 C        -21.795570   -2.376108   -0.008393
 C        -22.577280   -3.596013    0.010297
 C        -22.585298   -1.236976   -0.036556
 N        -22.068140   -4.827292    0.037662
 C        -24.040121   -3.584094    0.000241
 C        -23.996613   -1.226250   -0.046251
 F        -22.012729   -0.016744   -0.056846
 S        -23.327334   -5.883799    0.049778
 N        -24.568791   -4.807787    0.020519
 C        -24.803223   -2.353111   -0.028807
 F        -24.549027    0.003191   -0.074330
 C        -26.252163   -2.310030   -0.038070
 C        -27.142046   -3.374762   -0.023707
 S        -27.155972   -0.788383   -0.070061
 C        -28.498870   -2.992009   -0.037445
 H        -26.809540   -4.402497   -0.003493
 C        -28.695279   -1.622902   -0.062643
 H        -29.314828   -3.706918   -0.028707
 C         -5.391330    3.073908    0.040373
 C         -5.168838    4.449235    0.017674
 S         -3.855831    2.216019    0.062293
 C         -3.817415    4.811423    0.017691
 H         -5.975070    5.175507    0.001749
 C         -2.931493    3.728060    0.040043
 H         -3.461886    5.831205    0.001779
 C         -1.493826    3.762289    0.043298
 C         -0.730956    4.991288    0.023652
 C         -0.694695    2.607400    0.063934
 N         -1.261822    6.217452    0.003592
 C          0.730955    4.991289    0.023656
 C          0.694696    2.607400    0.063941
 F         -1.280609    1.387163    0.084759
 S         -0.000001    7.299626   -0.013990
 N          1.261820    6.217453    0.003598
 C          1.493826    3.762290    0.043305
 F          1.280611    1.387165    0.084768
 C        -29.937221   -0.886207   -0.081777
 C        -30.142561    0.477566   -0.103373
 S        -31.487810   -1.723142   -0.079407
 C        -31.515446    0.847777   -0.117857
 H        -29.330636    1.197447   -0.108559
 C        -32.379267   -0.217312   -0.107609
 H        -31.858448    1.877275   -0.135428
 C        -33.877783   -0.204877   -0.117659
 H        -34.285405   -0.720273   -0.995823
 H        -34.297059   -0.691716    0.771255
 H        -34.236517    0.828642   -0.136688
 C          2.931493    3.728062    0.040050
 S          3.855831    2.216021    0.062291
 C          3.817415    4.811425    0.017701
 C          5.391330    3.073910    0.040373
 C          5.168838    4.449237    0.017680
 H          3.461886    5.831207    0.001794
 C          6.630408    2.369598    0.045301
 H          5.975070    5.175508    0.001757
 C          6.852597    0.988289    0.075604
 S          8.173590    3.256317    0.007437
 C          8.212602    0.655352    0.068544
 H          6.038168    0.272142    0.102015
 C          9.055610    1.762306    0.032778
 C          9.027385   -0.628441    0.089999
 C         10.433452    1.369684    0.025599
 C         10.452920   -0.058912    0.059496
 C          8.741207   -1.500989   -1.153117
 C          8.771036   -1.439662    1.380237
 C         11.626509    2.118460   -0.007314
 C         11.651980   -0.746581    0.061390
 H          9.383227   -2.388811   -1.155553
 H          7.698506   -1.837679   -1.151428
 H          8.921047   -0.943562   -2.077715
 H          7.728957   -1.775938    1.418993
 H          9.413822   -2.326382    1.410699
 H          8.971787   -0.838113    2.272298
 C         12.825144    1.430041   -0.005665
 H         11.597407    3.204728   -0.033559
 C         12.843921    0.002432    0.028429
 H         11.681283   -1.832901    0.087520
 C         14.250733    1.999795   -0.037220
 C         14.225220   -0.389414    0.020548
 C         15.065119    0.715954   -0.016298
 C         14.537324    2.872724    1.205587
 C         14.505506    2.811269   -1.327661
 S         15.108537   -1.882019    0.045357
 C         16.428313    0.380373   -0.024861
 H         15.579765    3.210384    1.203062
 H         13.894739    3.760088    1.208523
 H         14.358482    2.315313    2.130398
 H         14.304433    2.209601   -2.219581
 H         13.862049    3.697468   -1.357734
 H         15.547261    3.148619   -1.367252
 C         16.647632   -0.996051    0.005516
 H         17.242009    1.097604   -0.052295
 C         17.893335   -1.705764    0.008642
 C         18.114693   -3.076179    0.033792
 S         19.422529   -0.846351   -0.020452
 C         19.473482   -3.434777    0.030000
 H         17.311313   -3.804951    0.054245
 C         20.348049   -2.353518    0.001842
 H         19.824594   -4.456308    0.047197
 C         21.795570   -2.376107   -0.008404
 C         22.577280   -3.596012    0.010290
 C         22.585298   -1.236976   -0.036566
 N         22.068140   -4.827291    0.037657
 C         24.040121   -3.584094    0.000240
 C         23.996614   -1.226250   -0.046255
 F         22.012730   -0.016743   -0.056859
 S         23.327333   -5.883799    0.049779
 N         24.568790   -4.807786    0.020521
 C         24.803223   -2.353110   -0.028808
 F         24.549028    0.003191   -0.074333
 C         26.252163   -2.310030   -0.038067
 C         27.142046   -3.374762   -0.023708
 S         27.155973   -0.788384   -0.070048
 C         28.498870   -2.992010   -0.037442
 H         26.809539   -4.402498   -0.003500
 C         28.695279   -1.622903   -0.062633
 H         29.314828   -3.706919   -0.028710
 C         29.937221   -0.886209   -0.081764
 C         30.142562    0.477564   -0.103394
 S         31.487810   -1.723143   -0.079343
 C         31.515447    0.847775   -0.117864
 H         29.330637    1.197444   -0.108617
 C         32.379268   -0.217314   -0.107572
 H         31.858450    1.877272   -0.135458
 C         33.877784   -0.204879   -0.117599
 H         34.297046   -0.691695    0.771335
 H         34.285420   -0.720298   -0.995743
 H         34.236518    0.828640   -0.136650
