        91
S0: Total Energy = -4894.86714847
 C          1.263010    0.388541   -0.150229
 C          0.699505   -0.876116   -0.083990
 C         -0.699508   -0.876117    0.083930
 C         -1.263011    0.388540    0.150187
 S          0.000000    1.604688   -0.000011
 H          1.285978   -1.785468   -0.158897
 H         -1.285982   -1.785469    0.158826
 C         -2.663403    0.725418    0.263314
 C         -3.293567    1.914354    0.622030
 S         -3.849434   -0.529229   -0.072405
 C         -4.704367    1.788319    0.636951
 C         -2.603465    3.203005    0.986910
 C         -5.194138    0.539185    0.297602
 H         -5.351163    2.613570    0.917506
 H         -1.804019    3.045825    1.719400
 H         -2.153150    3.687776    0.111622
 H         -3.320017    3.907899    1.418637
 C         -6.575036    0.129076    0.212943
 C         -7.147409   -1.135340    0.065803
 S         -7.817694    1.367284    0.309908
 C         -8.559707   -1.081119    0.048753
 C         -6.397203   -2.436226   -0.051746
 C         -9.110739    0.184139    0.173055
 H         -9.166005   -1.976174   -0.046965
 H         -5.826677   -2.495548   -0.986721
 H         -5.688624   -2.575630    0.772565
 H         -7.095053   -3.278222   -0.038960
 C        -10.508425    0.530053    0.184665
 C        -11.137639    1.772652    0.351074
 S        -11.684147   -0.756225   -0.037584
 C        -12.538740    1.656203    0.300636
 C        -10.447217    3.094147    0.563584
 C        -13.025885    0.368795    0.098963
 H        -13.204257    2.506701    0.412064
 H         -9.817305    3.087608    1.460822
 H         -9.806769    3.363036   -0.284824
 H        -11.187375    3.890311    0.683599
 C        -14.406677    0.048866    0.019346
 H        -15.074919    0.901086    0.128072
 C        -15.052457   -1.146979   -0.170766
 C        -16.538575   -1.131761   -0.203964
 C        -14.375928   -2.388334   -0.336160
 O        -17.219097   -0.129506   -0.074226
 O        -17.043989   -2.364141   -0.395423
 N        -13.812222   -3.400254   -0.470596
 C        -18.480072   -2.451554   -0.443650
 H        -18.870707   -1.850758   -1.268636
 H        -18.699944   -3.507146   -0.599906
 H        -18.914750   -2.102646    0.496236
 C          2.663402    0.725417   -0.263352
 C          3.293571    1.914348   -0.622081
 S          3.849431   -0.529230    0.072381
 C          4.704371    1.788313   -0.636983
 C          2.603474    3.202995   -0.986981
 C          5.194139    0.539184   -0.297611
 H          5.351170    2.613561   -0.917538
 H          1.804041    3.045810   -1.719485
 H          2.153142    3.687771   -0.111704
 H          3.320033    3.907887   -1.418700
 C          6.575036    0.129077   -0.212926
 C          7.147409   -1.135335   -0.065763
 S          7.817694    1.367287   -0.309882
 C          8.559706   -1.081113   -0.048698
 C          6.397202   -2.436221    0.051791
 C          9.110739    0.184144   -0.173011
 H          9.166004   -1.976167    0.047036
 H          5.826668   -2.495535    0.986761
 H          5.688630   -2.575633   -0.772526
 H          7.095053   -3.278217    0.039019
 C         10.508424    0.530059   -0.184615
 C         11.137638    1.772658   -0.351025
 S         11.684146   -0.756215    0.037656
 C         12.538739    1.656208   -0.300597
 C         10.447214    3.094151   -0.563537
 C         13.025884    0.368799   -0.098934
 H         13.204256    2.506704   -0.412037
 H          9.817292    3.087606   -1.460769
 H          9.806777    3.363049    0.284876
 H         11.187372    3.890314   -0.683568
 C         14.406677    0.048866   -0.019343
 H         15.074920    0.901084   -0.128086
 C         15.052457   -1.146980    0.170761
 C         16.538576   -1.131767    0.203929
 C         14.375927   -2.388332    0.336174
 O         17.219099   -0.129515    0.074168
 O         17.043990   -2.364149    0.395375
 N         13.812219   -3.400251    0.470611
 C         18.480074   -2.451567    0.443565
 H         18.870732   -1.850773    1.268541
 H         18.699946   -3.507160    0.599815
 H         18.914729   -2.102661   -0.496332
        91
T1: Total Energy = -4894.82667290
 C         -1.280253    0.559632   -0.000297
 C         -0.690049   -0.726732   -0.000506
 C          0.690049   -0.726732   -0.000620
 C          1.280252    0.559633   -0.000519
 S         -0.000000    1.786288   -0.000292
 H         -1.281627   -1.635496   -0.000555
 H          1.281627   -1.635496   -0.000759
 C          2.655342    0.857382   -0.000537
 C          3.342937    2.101385   -0.000463
 S          3.819446   -0.482794   -0.000628
 C          4.724535    1.946251   -0.000436
 C          2.684699    3.454167   -0.000400
 C          5.197462    0.619474   -0.000505
 H          5.398847    2.796232   -0.000348
 H          2.051646    3.598959   -0.883828
 H          2.051871    3.598984    0.883191
 H          3.441648    4.243273   -0.000509
 C          6.546982    0.198613   -0.000514
 C          7.116367   -1.096909   -0.000442
 S          7.821406    1.427587   -0.000592
 C          8.511946   -1.065015   -0.000437
 C          6.341636   -2.386739   -0.000363
 C          9.094805    0.209894   -0.000486
 H          9.107722   -1.971808   -0.000381
 H          5.698210   -2.475368    0.883146
 H          5.698519   -2.475660   -0.884072
 H          7.026059   -3.239435   -0.000105
 C         10.484215    0.515327   -0.000390
 C         11.152247    1.760374   -0.000551
 S         11.639099   -0.820166    0.000046
 C         12.541760    1.606389   -0.000325
 C         10.489306    3.111939   -0.000922
 C         13.006471    0.286374    0.000005
 H         13.227673    2.447820   -0.000406
 H          9.856585    3.257381   -0.884612
 H          9.856631    3.257884    0.882720
 H         11.245301    3.902231   -0.001163
 C         14.373465   -0.070061    0.000301
 H         15.062351    0.772406    0.000296
 C         14.994875   -1.302216    0.000608
 C         16.476338   -1.325962    0.000895
 C         14.291104   -2.537034    0.000651
 O         17.183901   -0.332234    0.000889
 O         16.957503   -2.585828    0.001169
 N         13.705456   -3.546533    0.000694
 C         18.390557   -2.706584    0.001460
 H         18.813936   -2.236624    0.892760
 H         18.590762   -3.777758    0.001614
 H         18.814283   -2.236813   -0.889773
 C         -2.655342    0.857382   -0.000151
 C         -3.342938    2.101385    0.000081
 S         -3.819446   -0.482795   -0.000281
 C         -4.724535    1.946251    0.000138
 C         -2.684699    3.454166    0.000269
 C         -5.197462    0.619472   -0.000029
 H         -5.398847    2.796231    0.000298
 H         -2.051578    3.598762    0.883681
 H         -2.051940    3.599179   -0.883339
 H         -3.441649    4.243273    0.000611
 C         -6.546981    0.198612    0.000037
 C         -7.116368   -1.096910   -0.000247
 S         -7.821406    1.427587    0.000542
 C         -8.511946   -1.065015   -0.000053
 C         -6.341638   -2.386740   -0.000696
 C         -9.094806    0.209895    0.000368
 H         -9.107722   -1.971808   -0.000206
 H         -5.698334   -2.475187   -0.884312
 H         -5.698399   -2.475843    0.882905
 H         -7.026061   -3.239436   -0.001036
 C        -10.484214    0.515327    0.000576
 C        -11.152247    1.760375    0.001152
 S        -11.639099   -0.820166    0.000048
 C        -12.541760    1.606390    0.001161
 C        -10.489306    3.111940    0.001725
 C        -13.006471    0.286374    0.000615
 H        -13.227672    2.447820    0.001579
 H         -9.856407    3.257162    0.885324
 H         -9.856808    3.258104   -0.882008
 H        -11.245300    3.902232    0.002314
 C        -14.373464   -0.070061    0.000517
 H        -15.062351    0.772406    0.000863
 C        -14.994874   -1.302216    0.000051
 C        -16.476337   -1.325962    0.000069
 C        -14.291104   -2.537034   -0.000429
 O        -17.183900   -0.332234    0.000470
 O        -16.957503   -2.585828   -0.000386
 N        -13.705457   -3.546534   -0.000864
 C        -18.390557   -2.706584   -0.000388
 H        -18.814133   -2.236422   -0.891486
 H        -18.590762   -3.777758   -0.000740
 H        -18.814086   -2.237015    0.891046
        91
S1: Total Energy = -4894.81005160
 C         -1.276639    0.547169    0.000049
 C         -0.692846   -0.735315    0.000141
 C          0.692848   -0.735314    0.000243
 C          1.276640    0.547170    0.000226
 S          0.000000    1.769936    0.000095
 H         -1.284145   -1.644097    0.000138
 H          1.284149   -1.644095    0.000315
 C          2.657483    0.854113    0.000277
 C          3.334990    2.095422    0.000283
 S          3.822651   -0.479856    0.000312
 C          4.723676    1.944336    0.000294
 C          2.675162    3.447045    0.000290
 C          5.193521    0.623180    0.000298
 H          5.395339    2.796112    0.000299
 H          2.042108    3.590932   -0.883423
 H          2.041946    3.590838    0.883902
 H          3.430570    4.237413    0.000401
 C          6.549589    0.195918    0.000275
 C          7.113142   -1.094648    0.000506
 S          7.822074    1.423273   -0.000054
 C          8.514850   -1.064752    0.000410
 C          6.339980   -2.385287    0.000819
 C          9.093359    0.206940    0.000104
 H          9.109558   -1.972016    0.000553
 H          5.696718   -2.474748    0.884568
 H          5.696635   -2.475134   -0.882829
 H          7.024906   -3.237461    0.000969
 C         10.487297    0.518454   -0.000094
 C         11.150957    1.761984   -0.000384
 S         11.643006   -0.815516    0.000024
 C         12.543466    1.611481   -0.000514
 C         10.486773    3.113023   -0.000550
 C         13.009940    0.292912   -0.000323
 H         13.227137    2.454681   -0.000739
 H          9.853689    3.258326   -0.884182
 H          9.853754    3.258576    0.883085
 H         11.241743    3.904313   -0.000689
 C         14.377325   -0.064405   -0.000382
 H         15.066324    0.777895   -0.000611
 C         14.999450   -1.298144   -0.000185
 C         16.478894   -1.322374   -0.000298
 C         14.296625   -2.532934    0.000131
 O         17.188851   -0.329279   -0.000546
 O         16.961546   -2.583433   -0.000042
 N         13.712071   -3.543592    0.000390
 C         18.394019   -2.702113   -0.000111
 H         18.817828   -2.231729    0.890927
 H         18.596143   -3.773043   -0.000049
 H         18.817739   -2.231838   -0.891246
 C         -2.657482    0.854111   -0.000046
 C         -3.334990    2.095419   -0.000169
 S         -3.822649   -0.479859    0.000010
 C         -4.723676    1.944331   -0.000202
 C         -2.675163    3.447042   -0.000273
 C         -5.193520    0.623176   -0.000108
 H         -5.395339    2.796107   -0.000297
 H         -2.042127    3.591002    0.883442
 H         -2.041929    3.590764   -0.883884
 H         -3.430571    4.237410   -0.000463
 C         -6.549587    0.195913   -0.000095
 C         -7.113140   -1.094653   -0.000234
 S         -7.822073    1.423268    0.000081
 C         -8.514849   -1.064757   -0.000207
 C         -6.339978   -2.385292   -0.000402
 C         -9.093358    0.206935   -0.000043
 H         -9.109556   -1.972022   -0.000303
 H         -5.696676   -2.474830   -0.884114
 H         -5.696674   -2.475063    0.883284
 H         -7.024904   -3.237466   -0.000509
 C        -10.487296    0.518449    0.000048
 C        -11.150954    1.761980    0.000195
 S        -11.643006   -0.815519   -0.000025
 C        -12.543463    1.611480    0.000230
 C        -10.486768    3.113019    0.000295
 C        -13.009939    0.292910    0.000103
 H        -13.227133    2.454680    0.000329
 H         -9.853748    3.258395    0.883960
 H         -9.853684    3.258496   -0.883307
 H        -11.241737    3.904309    0.000312
 C        -14.377324   -0.064404    0.000070
 H        -15.066322    0.777898    0.000168
 C        -14.999453   -1.298141   -0.000079
 C        -16.478896   -1.322367   -0.000098
 C        -14.296631   -2.532934   -0.000232
 O        -17.188851   -0.329270    0.000040
 O        -16.961552   -2.583425   -0.000256
 N        -13.712082   -3.543594   -0.000365
 C        -18.394025   -2.702102   -0.000263
 H        -18.817778   -2.231807   -0.891374
 H        -18.596151   -3.773031   -0.000228
 H        -18.817799   -2.231736    0.890799
