        92
S0: Total Energy = -4590.02977054
 C          0.148515    0.705415   -0.719766
 C          1.375531    1.340290   -0.799787
 C          1.290369    2.748447   -0.785878
 C         -0.003442    3.238746   -0.693419
 S         -1.138903    1.893638   -0.613812
 H          2.314189    0.803401   -0.885998
 H          2.159374    3.393353   -0.858842
 C         -0.419886    4.619741   -0.629580
 C         -1.678763    5.204903   -0.758827
 S          0.809487    5.846173   -0.356321
 C         -1.625182    6.615414   -0.650815
 C         -2.972581    4.472959   -1.005032
 C         -0.365338    7.149311   -0.437587
 H         -2.513519    7.231725   -0.745527
 H         -2.902062    3.793353   -1.861906
 H         -3.275102    3.873757   -0.137195
 H         -3.777537    5.185136   -1.208579
 C         -0.017842    8.539101   -0.274095
 C          1.227390    9.168362   -0.200248
 S         -1.319910    9.713983   -0.138374
 C          1.107335   10.569851   -0.050150
 C          2.567565    8.484743   -0.275881
 C         -0.189383   11.050544   -0.001265
 H          1.974816   11.219471    0.013907
 H          2.737982    7.823318    0.582417
 H          2.666156    7.876390   -1.182335
 H          3.370655    9.227170   -0.283335
 C         -0.645805   12.400422    0.140261
 C         -1.953704   12.862825    0.152287
 C         -2.114081   14.250045    0.309103
 C         -0.957271   15.009352    0.434742
 H         -3.091643   14.722911    0.331205
 C         -0.961407   16.416275    0.597644
 H         -1.952904   16.866923    0.619811
 C          0.063003   17.320643    0.733606
 C         -0.294998   18.754592    0.889340
 C          1.436721   16.950942    0.731957
 O         -1.436721   19.180638    0.903650
 O          0.798148   19.528789    1.013428
 N          2.558913   16.633021    0.728796
 C          0.553096   20.938060    1.170352
 H         -0.036892   21.124287    2.071199
 H          1.538481   21.395080    1.255570
 H          0.020194   21.331305    0.301091
 C         -0.148515   -0.705415   -0.719766
 C         -1.375531   -1.340290   -0.799787
 S          1.138903   -1.893638   -0.613812
 C         -1.290369   -2.748447   -0.785878
 H         -2.314189   -0.803401   -0.885998
 C          0.003442   -3.238746   -0.693419
 H         -2.159374   -3.393353   -0.858842
 C          0.419886   -4.619741   -0.629580
 C          1.678763   -5.204903   -0.758827
 S         -0.809487   -5.846173   -0.356321
 C          1.625182   -6.615414   -0.650815
 C          2.972581   -4.472959   -1.005032
 C          0.365338   -7.149311   -0.437587
 H          2.513519   -7.231725   -0.745527
 H          2.902062   -3.793353   -1.861906
 H          3.275102   -3.873757   -0.137195
 H          3.777537   -5.185136   -1.208579
 C          0.017842   -8.539101   -0.274095
 C         -1.227390   -9.168362   -0.200248
 S          1.319910   -9.713983   -0.138374
 C         -1.107335  -10.569851   -0.050150
 C         -2.567565   -8.484743   -0.275881
 C          0.189383  -11.050544   -0.001265
 H         -1.974816  -11.219471    0.013907
 H         -2.737982   -7.823318    0.582417
 H         -2.666156   -7.876390   -1.182335
 H         -3.370655   -9.227170   -0.283335
 C          0.645805  -12.400422    0.140261
 C          1.953704  -12.862825    0.152287
 C          2.114081  -14.250045    0.309103
 C          0.957271  -15.009352    0.434742
 H          3.091643  -14.722911    0.331205
 C          0.961407  -16.416275    0.597644
 H          1.952904  -16.866923    0.619811
 C         -0.063003  -17.320643    0.733606
 C          0.294998  -18.754592    0.889340
 C         -1.436721  -16.950942    0.731957
 O          1.436721  -19.180638    0.903650
 O         -0.798148  -19.528789    1.013428
 N         -2.558913  -16.633021    0.728796
 C         -0.553096  -20.938060    1.170352
 H          0.036892  -21.124287    2.071199
 H         -1.538481  -21.395080    1.255570
 H         -0.020194  -21.331305    0.301091
 H         -2.801275   12.193394    0.043661
 H          2.801275  -12.193394    0.043661
Se          0.598682   13.856741    0.352382
Se         -0.598682  -13.856741    0.352382
        92
T1: Total Energy = -4589.98978226
 C          0.129547    0.692139   -0.039647
 C          1.371297    1.355142   -0.038586
 C          1.275818    2.737650   -0.037288
 C         -0.045609    3.236029   -0.037653
 S         -1.181497    1.877153   -0.039747
 H          2.315785    0.822037   -0.038627
 H          2.141343    3.390706   -0.036560
 C         -0.439750    4.592649   -0.035193
 C         -1.725156    5.188795   -0.036060
 S          0.814432    5.843446   -0.029997
 C         -1.665902    6.581992   -0.032096
 C         -3.029622    4.438713   -0.040528
 C         -0.377202    7.141257   -0.027724
 H         -2.560277    7.196158   -0.032750
 H         -3.127387    3.796873   -0.924280
 H         -3.133525    3.797496    0.842990
 H         -3.869495    5.139006   -0.043574
 C         -0.045609    8.520161   -0.021328
 C          1.208769    9.170405   -0.015680
 S         -1.355793    9.709854   -0.017985
 C          1.086417   10.565189   -0.008103
 C          2.546736    8.481361   -0.017710
 C         -0.221658   11.055489   -0.008029
 H          1.950486   11.222002   -0.003034
 H          2.677810    7.842431    0.863908
 H          2.678149    7.848366   -0.903566
 H          3.352727    9.220407   -0.015021
 C         -0.665340   12.402090   -0.000827
 C         -1.978251   12.875961   -0.005198
 C         -2.132358   14.264564    0.004775
 C         -0.967735   15.036747    0.018661
 H         -3.108128   14.741579    0.002387
 C         -0.965279   16.446550    0.031077
 H         -1.954059   16.903397    0.028145
 C          0.069092   17.360326    0.047034
 C         -0.281134   18.799821    0.057286
 C          1.439801   16.986780    0.054220
 O         -1.421366   19.233876    0.052905
 O          0.816675   19.582142    0.071905
 N          2.561802   16.665100    0.060432
 C          0.573386   20.998980    0.083324
 H          0.006071   21.282730    0.973492
 H          1.559756   21.462139    0.094260
 H          0.018126   21.299134   -0.809005
 C         -0.129547   -0.692139   -0.039647
 C         -1.371297   -1.355142   -0.038586
 S          1.181497   -1.877153   -0.039747
 C         -1.275818   -2.737650   -0.037288
 H         -2.315785   -0.822037   -0.038627
 C          0.045609   -3.236029   -0.037653
 H         -2.141343   -3.390706   -0.036560
 C          0.439750   -4.592649   -0.035193
 C          1.725156   -5.188795   -0.036060
 S         -0.814432   -5.843446   -0.029997
 C          1.665902   -6.581992   -0.032096
 C          3.029622   -4.438713   -0.040528
 C          0.377202   -7.141257   -0.027724
 H          2.560277   -7.196158   -0.032750
 H          3.127387   -3.796873   -0.924280
 H          3.133525   -3.797496    0.842990
 H          3.869495   -5.139006   -0.043574
 C          0.045609   -8.520161   -0.021328
 C         -1.208769   -9.170405   -0.015680
 S          1.355793   -9.709854   -0.017985
 C         -1.086417  -10.565189   -0.008103
 C         -2.546736   -8.481361   -0.017710
 C          0.221658  -11.055489   -0.008029
 H         -1.950486  -11.222002   -0.003034
 H         -2.677810   -7.842431    0.863908
 H         -2.678149   -7.848366   -0.903566
 H         -3.352727   -9.220407   -0.015021
 C          0.665340  -12.402090   -0.000827
 C          1.978251  -12.875961   -0.005198
 C          2.132358  -14.264564    0.004775
 C          0.967735  -15.036747    0.018661
 H          3.108128  -14.741579    0.002387
 C          0.965279  -16.446550    0.031077
 H          1.954059  -16.903397    0.028145
 C         -0.069092  -17.360326    0.047034
 C          0.281134  -18.799821    0.057286
 C         -1.439801  -16.986780    0.054220
 O          1.421366  -19.233876    0.052905
 O         -0.816675  -19.582142    0.071905
 N         -2.561802  -16.665100    0.060432
 C         -0.573386  -20.998980    0.083324
 H         -0.006071  -21.282730    0.973492
 H         -1.559756  -21.462139    0.094260
 H         -0.018126  -21.299134   -0.809005
 H         -2.828700   12.201179   -0.015896
 H          2.828700  -12.201179   -0.015896
Se          0.587939   13.875874    0.018557
Se         -0.587939  -13.875874    0.018557
        92
S1: Total Energy = -4589.97511440
 C          0.133633    0.693529   -0.017000
 C          1.375288    1.349492   -0.016335
 C          1.283535    2.735634   -0.016902
 C         -0.034556    3.232716   -0.019503
 S         -1.171258    1.880867   -0.018797
 H          2.319380    0.815656   -0.016025
 H          2.150983    3.385926   -0.017096
 C         -0.433274    4.593296   -0.021428
 C         -1.715275    5.183280   -0.029262
 S          0.817478    5.844023   -0.014237
 C         -1.658326    6.582032   -0.029973
 C         -3.019860    4.434325   -0.037512
 C         -0.373149    7.137083   -0.023173
 H         -2.553703    7.194366   -0.036356
 H         -3.115500    3.792650   -0.921816
 H         -3.126824    3.792792    0.845603
 H         -3.858855    5.135268   -0.042676
 C         -0.034556    8.521846   -0.020421
 C          1.216073    9.165861   -0.013934
 S         -1.342505    9.711702   -0.023365
 C          1.096294   10.566565   -0.011708
 C          2.555108    8.478684   -0.009982
 C         -0.208184   11.054835   -0.016185
 H          1.961772   11.221262   -0.007474
 H          2.684077    7.840545    0.872694
 H          2.691666    7.845009   -0.894708
 H          3.359942    9.218834   -0.004598
 C         -0.656179   12.405222   -0.014188
 C         -1.967028   12.876922   -0.029286
 C         -2.124258   14.267034   -0.021563
 C         -0.960800   15.040578    0.000813
 H         -3.100758   14.742635   -0.031891
 C         -0.956604   16.449725    0.011999
 H         -1.944790   16.907506   -0.000368
 C          0.079569   17.364812    0.036548
 C         -0.270115   18.801975    0.041880
 C          1.449676   16.992252    0.057392
 O         -1.410229   19.238717    0.023555
 O          0.827772   19.586757    0.067630
 N          2.572251   16.671391    0.073617
 C          0.580888   21.002149    0.074111
 H          0.002013   21.286596    0.956734
 H          1.565774   21.468368    0.096128
 H          0.035289   21.300595   -0.824952
 C         -0.133633   -0.693529   -0.017000
 C         -1.375288   -1.349492   -0.016335
 S          1.171258   -1.880867   -0.018797
 C         -1.283535   -2.735634   -0.016902
 H         -2.319380   -0.815656   -0.016025
 C          0.034556   -3.232716   -0.019503
 H         -2.150983   -3.385926   -0.017096
 C          0.433274   -4.593296   -0.021428
 C          1.715275   -5.183280   -0.029262
 S         -0.817478   -5.844023   -0.014237
 C          1.658326   -6.582032   -0.029973
 C          3.019860   -4.434325   -0.037512
 C          0.373149   -7.137083   -0.023173
 H          2.553703   -7.194366   -0.036356
 H          3.115500   -3.792650   -0.921816
 H          3.126824   -3.792792    0.845603
 H          3.858855   -5.135268   -0.042676
 C          0.034556   -8.521846   -0.020421
 C         -1.216073   -9.165861   -0.013934
 S          1.342505   -9.711702   -0.023365
 C         -1.096294  -10.566565   -0.011708
 C         -2.555108   -8.478684   -0.009982
 C          0.208184  -11.054835   -0.016185
 H         -1.961772  -11.221262   -0.007474
 H         -2.684077   -7.840545    0.872694
 H         -2.691666   -7.845009   -0.894708
 H         -3.359942   -9.218834   -0.004598
 C          0.656179  -12.405222   -0.014188
 C          1.967028  -12.876922   -0.029286
 C          2.124258  -14.267034   -0.021563
 C          0.960800  -15.040578    0.000813
 H          3.100758  -14.742635   -0.031891
 C          0.956604  -16.449725    0.011999
 H          1.944790  -16.907506   -0.000368
 C         -0.079569  -17.364812    0.036548
 C          0.270115  -18.801975    0.041880
 C         -1.449676  -16.992252    0.057392
 O          1.410229  -19.238717    0.023555
 O         -0.827772  -19.586757    0.067630
 N         -2.572251  -16.671391    0.073617
 C         -0.580888  -21.002149    0.074111
 H         -0.002013  -21.286596    0.956734
 H         -1.565774  -21.468368    0.096128
 H         -0.035289  -21.300595   -0.824952
 H         -2.817187   12.201502   -0.046826
 H          2.817187  -12.201502   -0.046826
Se          0.596355   13.879307    0.014261
Se         -0.596355  -13.879307    0.014261
