       104
S0: Total Energy = -7115.70166834
 S         16.196183   -1.886296    0.033052
 C         17.750339   -2.743625    0.054408
 S         17.862889   -4.395080    0.118502
 N         18.784477   -1.853003    0.011333
 C         18.454013   -0.478088   -0.039612
 O         19.294321    0.407371   -0.080572
 C         16.992235   -0.310017   -0.035140
 C         16.438172    0.933546   -0.081583
 H         17.166315    1.742711   -0.120114
 C         15.077420    1.351003   -0.088513
 C         14.647507    2.669660   -0.150992
 C         13.249061    2.850436   -0.151020
 C         12.562774    1.631510   -0.088440
 S         13.687953    0.281449   -0.017927
 H         15.347086    3.498085   -0.202359
 C         11.151314    1.342101   -0.077586
 C         10.546773    0.094215   -0.143092
 C          9.143162    0.130389   -0.090174
 C          8.611210    1.408811    0.017593
 S          9.914282    2.588205    0.052754
 H         11.108416   -0.829315   -0.233273
 H          8.529233   -0.762506   -0.132398
 C          7.217283    1.775316    0.082538
 C          6.600718    3.015396    0.232333
 C          5.185316    2.912206    0.248879
 C          4.689831    1.631583    0.116245
 S          6.012394    0.492778   -0.036396
 H          4.544367    3.781406    0.356788
 C          3.315988    1.191761    0.095051
 C          2.828187   -0.078135   -0.083525
 C          1.400524   -0.160392   -0.049448
 C          0.797116    1.115344    0.148401
 S          2.008311    2.377062    0.320400
 H          3.462698   -0.940852   -0.252362
 C          0.580066   -1.296316   -0.196099
 C         -0.580060    1.296347    0.195800
 C         -0.797109   -1.115317   -0.148696
 C         -1.400517    0.160426    0.049163
 C         -2.828180    0.078165    0.083256
 C         -3.315984   -1.191727   -0.095341
 S         -2.008312   -2.377029   -0.320690
 H         -3.462695    0.940874    0.252120
 C         -4.689828   -1.631547   -0.116536
 C         -5.185312   -2.912171   -0.249169
 C         -6.600714   -3.015364   -0.232605
 C         -7.217279   -1.775286   -0.082791
 S         -6.012391   -0.492742    0.036088
 H         -4.544363   -3.781371   -0.357078
 C         -8.611205   -1.408785   -0.017801
 C         -9.143159   -0.130362    0.089946
 C        -10.546768   -0.094197    0.142952
 C        -11.151303   -1.342090    0.077535
 S         -9.914272   -2.588187   -0.052879
 H         -8.529234    0.762538    0.132108
 H        -11.108412    0.829331    0.233144
 C        -12.562760   -1.631511    0.088504
 C        -13.249029   -2.850440    0.151196
 C        -14.647477   -2.669677    0.151277
 C        -15.077407   -1.351026    0.088776
 S        -13.687956   -0.281464    0.017995
 H        -15.347045   -3.498105    0.202751
 H        -17.166295   -1.742749    0.120598
 C        -16.438163   -0.933580    0.081959
 C        -16.992240    0.309976    0.035515
 O        -19.294316   -0.407430    0.081216
 C        -18.454020    0.478036    0.040153
 N        -18.784501    1.852943   -0.010890
 S        -17.862946    4.395023   -0.118277
 C        -17.750376    2.743569   -0.054181
 S        -16.196208    1.886260   -0.032805
 C         20.182836   -2.277381    0.016683
 H         20.397036   -2.839786    0.928422
 H         20.789552   -1.373649   -0.025843
 C        -20.182865    2.277308   -0.016108
 H        -20.789568    1.373575    0.026562
 H        -20.397174    2.839640   -0.927867
 C         12.616414    4.215659   -0.222064
 H         13.387447    4.982631   -0.337343
 H         12.049143    4.452114    0.686233
 C          7.302432    4.341152    0.367257
 H          6.571845    5.144413    0.498039
 H          7.901570    4.580132   -0.519829
 C         -7.302429   -4.341121   -0.367512
 H         -7.901532   -4.580109    0.519595
 H         -6.571845   -5.144379   -0.498329
 C        -12.616363   -4.215654    0.222260
 H        -12.049185   -4.452161   -0.686081
 H        -13.387378   -4.982625    0.337668
 H         20.381357   -2.913126   -0.849237
 H         11.928451    4.304428   -1.070746
 H          7.976600    4.361685    1.231877
 H         -7.976630   -4.361649   -1.232107
 H        -11.928311   -4.304363    1.070876
 H        -20.381291    2.913121    0.849785
 C          1.502572   -3.252854    0.767277
 H          0.640003   -3.415672    1.423522
 H          1.895247   -4.214466    0.431960
 H          2.279756   -2.709034    1.316299
 C         -1.502577    3.252888   -0.767558
 H         -1.895177    4.214528   -0.432235
 H         -0.640040    3.415647   -1.423860
 H         -2.279833    2.709102   -1.316508
 O          1.116533   -2.542760   -0.422147
 O         -1.116488    2.542805    0.421854
       104
T1: Total Energy = -7115.65843562
 S         16.086003    1.946941   -0.288144
 C         17.606533    2.857748   -0.377340
 S         17.658483    4.514745   -0.512164
 N         18.660988    2.000309   -0.318594
 C         18.368604    0.614183   -0.204961
 O         19.242396   -0.246677   -0.146166
 C         16.926251    0.408859   -0.171959
 C         16.392215   -0.868010   -0.060346
 H         17.143981   -1.653089   -0.004823
 C         15.064119   -1.298294   -0.008164
 C         14.650276   -2.651876    0.109160
 C         13.287185   -2.864593    0.143829
 C         12.536199   -1.645501    0.052416
 S         13.647186   -0.253093   -0.076536
 H         15.377724   -3.455080    0.167087
 C         11.161847   -1.408067    0.050515
 C         10.518731   -0.137914   -0.044548
 C          9.145639   -0.190679   -0.020932
 C          8.599925   -1.495022    0.092821
 S          9.925628   -2.677614    0.170592
 H         11.077686    0.787079   -0.127767
 H          8.519537    0.692751   -0.083635
 C          7.237542   -1.837532    0.139124
 C          6.594761   -3.100421    0.249675
 C          5.201689   -2.988893    0.259263
 C          4.698886   -1.689847    0.162497
 S          6.025596   -0.541514    0.049985
 H          4.552499   -3.854987    0.339224
 C          3.339308   -1.263273    0.148254
 C          2.848015    0.027693    0.079812
 C          1.427897    0.106018    0.085804
 C          0.817909   -1.181932    0.179386
 S          2.022183   -2.461847    0.224765
 H          3.486513    0.902950    0.043103
 C          0.609196    1.255735    0.028410
 C         -0.557095   -1.359205    0.224920
 C         -0.766436    1.076908    0.075602
 C         -1.374882   -0.210045    0.166637
 C         -2.799521   -0.129248    0.171408
 C         -3.284881    1.155215    0.106794
 S         -1.973030    2.353870    0.033544
 H         -3.438145   -1.004507    0.207015
 C         -4.656600    1.595009    0.093982
 C         -5.151024    2.881474    0.009421
 C         -6.565384    2.984777    0.017881
 C         -7.183241    1.738972    0.108341
 S         -5.981317    0.452590    0.199076
 H         -4.508890    3.753305   -0.065497
 C         -8.578080    1.371077    0.127753
 C         -9.115187    0.094374    0.027103
 C        -10.517579    0.053169    0.109200
 C        -11.114134    1.295570    0.275078
 S         -9.872880    2.542165    0.331495
 H         -8.505635   -0.792265   -0.108305
 H        -11.084437   -0.869715    0.050999
 C        -12.523734    1.585168    0.355840
 C        -13.199158    2.761076    0.702903
 C        -14.599201    2.594974    0.668533
 C        -15.039486    1.329903    0.303569
 S        -13.659309    0.297200   -0.023685
 H        -15.292547    3.392523    0.916403
 H        -17.124803    1.719514    0.437566
 C        -16.404265    0.935926    0.206750
 C        -16.968964   -0.257491   -0.127547
 O        -19.264345    0.447023    0.098124
 C        -18.432611   -0.410432   -0.155649
 N        -18.775375   -1.731132   -0.529575
 S        -17.876502   -4.183217   -1.237354
 C        -17.749202   -2.594765   -0.786137
 S        -16.187173   -1.779317   -0.569493
 C         20.046547    2.458604   -0.368168
 H         20.233424    2.980854   -1.309615
 H         20.676224    1.572772   -0.291576
 C        -20.177310   -2.131562   -0.629656
 H        -20.776970   -1.256787   -0.380985
 H        -20.381635   -2.946640    0.068445
 C         12.680313   -4.235292    0.265220
 H         13.467019   -4.992869    0.317373
 H         12.041533   -4.474663   -0.593200
 C          7.296455   -4.427529    0.349419
 H          6.564111   -5.236396    0.421703
 H          7.941693   -4.483350    1.234198
 C         -7.267498    4.313962   -0.075703
 H         -7.995141    4.336041   -0.895150
 H         -6.542327    5.113441   -0.252002
 C        -12.554133    4.066429    1.089175
 H        -11.831422    3.940514    1.903332
 H        -13.314111    4.777610    1.424952
 H         20.242558    3.141507    0.461868
 H         12.064803   -4.329096    1.167795
 H          7.924474   -4.625212   -0.527314
 H         -7.807570    4.557362    0.847669
 H        -12.022765    4.525797    0.246790
 H        -20.395059   -2.469350   -1.645429
 C          1.487890    2.966316   -1.354464
 H          0.596700    3.002780   -1.991087
 H          1.897666    3.971028   -1.237862
 H          2.238047    2.313103   -1.814433
 C         -1.446238   -3.065157    1.605925
 H         -1.852999   -4.071348    1.490894
 H         -0.560895   -3.096748    2.251069
 H         -2.201860   -2.411565    2.056401
 O          1.153461    2.516194   -0.029174
 O         -1.100849   -2.620967    0.281916
       104
S1: Total Energy = -7115.64039447
 S         16.117852    1.895675    0.057414
 C         17.656145    2.777238    0.072830
 S         17.745697    4.436351    0.118131
 N         18.698454    1.898946    0.042763
 C         18.385284    0.516114    0.007191
 O         19.243316   -0.358513   -0.020815
 C         16.932956    0.330845    0.009801
 C         16.386555   -0.925833   -0.023067
 H         17.124005   -1.726608   -0.049593
 C         15.036527   -1.352917   -0.028884
 C         14.611448   -2.682375   -0.067219
 C         13.222274   -2.873969   -0.066587
 C         12.516086   -1.655662   -0.025921
 S         13.636845   -0.290101    0.009967
 H         15.318753   -3.505198   -0.095662
 C         11.115305   -1.383436   -0.011570
 C         10.499455   -0.126434    0.037220
 C          9.107013   -0.168777    0.036777
 C          8.566221   -1.459834   -0.011919
 S          9.879562   -2.640717   -0.057778
 H         11.061825    0.799925    0.073501
 H          8.490841    0.723060    0.072549
 C          7.187429   -1.813020   -0.026905
 C          6.554347   -3.074485   -0.062453
 C          5.157146   -2.969184   -0.065132
 C          4.653479   -1.668026   -0.033806
 S          5.984790   -0.518519    0.000602
 H          4.510680   -3.840627   -0.089542
 C          3.300575   -1.241935   -0.031924
 C          2.810993    0.061898    0.006470
 C          1.405154    0.147914   -0.008795
 C          0.780816   -1.142683   -0.038245
 S          1.978062   -2.430891   -0.085194
 H          3.456974    0.930681    0.060132
 C          0.588588    1.312890    0.022687
 C         -0.588592   -1.312882   -0.022313
 C         -0.780821    1.142691    0.038614
 C         -1.405158   -0.147906    0.009164
 C         -2.810997   -0.061890   -0.006115
 C         -3.300580    1.241943    0.032272
 S         -1.978066    2.430898    0.085564
 H         -3.456978   -0.930672   -0.059785
 C         -4.653484    1.668034    0.034129
 C         -5.157152    2.969192    0.065455
 C         -6.554353    3.074492    0.062741
 C         -7.187433    1.813027    0.027161
 S         -5.984793    0.518527   -0.000312
 H         -4.510686    3.840635    0.089888
 C         -8.566224    1.459840    0.012126
 C         -9.107013    0.168782   -0.036590
 C        -10.499455    0.126438   -0.037109
 C        -11.115308    1.383439    0.011642
 S         -9.879569    2.640720    0.057942
 H         -8.490837   -0.723054   -0.072338
 H        -11.061822   -0.799922   -0.073430
 C        -12.516091    1.655664    0.025892
 C        -13.222285    2.873968    0.066515
 C        -14.611459    2.682372    0.067023
 C        -15.036532    1.352913    0.028630
 S        -13.636844    0.290100   -0.010094
 H        -15.318768    3.505193    0.095408
 H        -17.124013    1.726600    0.049130
 C        -16.386558    0.925827    0.022673
 C        -16.932953   -0.330853   -0.010262
 O        -19.243318    0.358496    0.020188
 C        -18.385281   -0.516126   -0.007820
 N        -18.698442   -1.898961   -0.043324
 S        -17.745668   -4.436365   -0.118501
 C        -17.656127   -2.777250   -0.073276
 S        -16.117839   -1.895679   -0.057812
 C         20.091320    2.338013    0.046428
 H         20.285695    2.967518   -0.825163
 H         20.706746    1.439625    0.014032
 C        -20.091305   -2.338035   -0.047043
 H        -20.706738   -1.439648   -0.014743
 H        -20.285730   -2.967484    0.824577
 C         12.600507   -4.244605   -0.105333
 H         13.379909   -5.011464   -0.126000
 H         11.973187   -4.384927   -0.993863
 C          7.259075   -4.403950   -0.093148
 H          6.529211   -5.218086   -0.110453
 H          7.897625   -4.548137    0.786409
 C         -7.259082    4.403956    0.093426
 H         -7.897606    4.548150   -0.786150
 H         -6.529218    5.218093    0.110760
 C        -12.600525    4.244605    0.105323
 H        -11.973281    4.384923    0.993908
 H        -13.379931    5.011462    0.125931
 H         20.298878    2.912067    0.952620
 H         11.971438   -4.434077    0.772703
 H          7.894820   -4.508833   -0.980336
 H         -7.894854    4.508832    0.980595
 H        -11.971382    4.434086   -0.772658
 H        -20.298806   -2.912148   -0.953210
 C          1.562368    3.104952   -1.185711
 H          0.708672    3.208360   -1.864501
 H          1.983188    4.088071   -0.969714
 H          2.324737    2.470593   -1.650919
 C         -1.562371   -3.104947    1.186084
 H         -1.983189   -4.088067    0.970086
 H         -0.708674   -3.208354    1.864873
 H         -2.324741   -2.470590    1.651293
 O          1.142739    2.565732    0.082603
 O         -1.142742   -2.565725   -0.082229
