       116
S0: Total Energy = -8068.92508470
 S        -16.201043    1.725530    0.095070
 C        -17.761438    2.571353    0.109906
 S        -17.887326    4.219498    0.219854
 N        -18.787937    1.675532    0.019701
 C        -18.446458    0.304932   -0.065669
 O        -19.279418   -0.584424   -0.150161
 C        -16.984003    0.146622   -0.036428
 C        -16.419661   -1.091192   -0.108757
 H        -17.140548   -1.903994   -0.187104
 C        -15.055970   -1.498452   -0.099810
 C        -14.614106   -2.811568   -0.188783
 C        -13.214714   -2.982042   -0.161443
 C        -12.539396   -1.760652   -0.045384
 S        -13.676735   -0.420446    0.024440
 H        -15.305640   -3.643912   -0.274141
 C        -11.131445   -1.462299    0.020194
 C        -10.540646   -0.212863    0.151673
 C         -9.136533   -0.240648    0.197274
 C         -8.590617   -1.513883    0.101207
 S         -9.879421   -2.698861   -0.050645
 H        -11.112796    0.705922    0.222197
 H         -8.531960    0.652542    0.309517
 C         -7.192042   -1.869391    0.094782
 C         -6.560392   -3.108125    0.176045
 C         -5.146123   -2.990803    0.153954
 C         -4.667588   -1.700406    0.055784
 S         -6.004644   -0.572266   -0.031140
 H         -4.492830   -3.854467    0.226879
 C         -3.299259   -1.244386    0.017280
 C         -2.827522    0.040878    0.085313
 C         -1.400949    0.146966    0.019327
 C         -0.778058   -1.131559   -0.090088
 S         -1.981300   -2.419118   -0.138851
 H         -3.477766    0.899034    0.205238
 C         -0.607674    1.319612    0.106570
 C          0.607670   -1.319607   -0.107275
 C          0.778055    1.131563    0.089390
 C          1.400945   -0.146963   -0.020027
 C          2.827519   -0.040877   -0.086011
 C          3.299255    1.244386   -0.017967
 S          1.981300    2.419118    0.138189
 H          3.477764   -0.899027   -0.205969
 C          4.667587    1.700402   -0.056466
 C          5.146132    2.990766   -0.155003
 C          6.560405    3.108077   -0.176977
 C          7.192044    1.869367   -0.095246
 S          6.004629    0.572289    0.030993
 H          4.492845    3.854403   -0.228295
 C          8.590618    1.513852   -0.101418
 C          9.136534    0.240571   -0.196874
 C         10.540644    0.212800   -0.151173
 C         11.131441    1.462293   -0.020226
 S          9.879419    2.698895    0.049949
 H          8.531964   -0.652670   -0.308729
 H         11.112793   -0.706021   -0.221222
 C         12.539387    1.760670    0.045318
 C         13.214699    2.982101    0.160966
 C         14.614089    2.811636    0.188471
 C         15.055958    1.498487    0.100018
 S         13.676730    0.420436   -0.023919
 H         15.305614    3.644014    0.273563
 H         17.140531    1.904059    0.187317
 C         16.419649    1.091231    0.109195
 C         16.983997   -0.146607    0.037317
 O         19.279404    0.584478    0.150969
 C         18.446451   -0.304906    0.066709
 N         18.787937   -1.675532   -0.018218
 S         17.887342   -4.219562   -0.217627
 C         17.761446   -2.571381   -0.108232
 S         16.201048   -1.725559   -0.093709
 C         -1.191146    2.667723    0.211658
 C         -0.937025    3.634336    1.154395
 C         -1.643930    4.853074    0.931135
 C         -2.438947    4.836020   -0.184232
 S         -2.321167    3.287218   -0.988133
 H         -0.277718    3.468878    1.999706
 H         -1.570110    5.717257    1.583772
 C          1.191144   -2.667718   -0.212364
 C          0.937022   -3.634333   -1.155098
 C          1.643937   -4.853066   -0.931844
 C          2.438962   -4.836007    0.183518
 S          2.321178   -3.287206    0.987420
 H          0.277708   -3.468879   -2.000405
 H          1.570118   -5.717249   -1.584481
 C        -20.189150    2.090250    0.009809
 H        -20.424937    2.624870    0.932896
 H        -20.788399    1.184101   -0.070448
 C         20.189150   -2.090245   -0.008103
 H         20.788390   -1.184074    0.071981
 H         20.425020   -2.625092   -0.931037
 C        -12.570904   -4.340935   -0.249916
 H        -13.337904   -5.116480   -0.328985
 H        -11.962825   -4.564762    0.634501
 C         -7.246524   -4.444015    0.291160
 H         -6.508994   -5.235820    0.450141
 H         -7.808301   -4.695163   -0.617118
 C          7.246553    4.443929   -0.292446
 H          7.808377    4.695288    0.615743
 H          6.509027    5.235707   -0.451585
 C         12.570885    4.341028    0.248886
 H         11.962856    4.564521   -0.635649
 H         13.337881    5.116603    0.327701
 C         -3.316457    5.926926   -0.722111
 H         -3.019827    6.229619   -1.733519
 H         -3.248795    6.806132   -0.074208
 C          3.316483   -5.926907    0.721390
 H          3.248824   -6.806112    0.073486
 H          3.019860   -6.229605    1.732799
 H        -20.375479    2.749297   -0.841287
 H        -11.918978   -4.428933   -1.127127
 H         -7.952185   -4.471695    1.129529
 H          4.368521   -5.620787    0.766542
 H         -4.368497    5.620813   -0.767268
 H          7.952175    4.471396   -1.130857
 H         11.918910    4.429359    1.126028
 H         20.375405   -2.749081    0.843172
       116
T1: Total Energy = -8068.88203600
 S        -16.174276   -1.708771    0.001610
 C        -17.735349   -2.553843   -0.002211
 S        -17.862543   -4.201993   -0.107987
 N        -18.760799   -1.657234    0.092331
 C        -18.418076   -0.286798    0.172984
 O        -19.249720    0.603357    0.260781
 C        -16.955476   -0.129289    0.134490
 C        -16.390271    1.108396    0.200567
 H        -17.110171    1.921791    0.281633
 C        -15.026205    1.514668    0.181947
 C        -14.582757    2.827677    0.265031
 C        -13.183468    2.996857    0.227754
 C        -12.510044    1.774529    0.110007
 S        -13.649026    0.435151    0.050633
 H        -15.272962    3.660792    0.353258
 C        -11.103048    1.474805    0.035534
 C        -10.514427    0.223444   -0.091351
 C         -9.111229    0.249500   -0.147974
 C         -8.562971    1.523206   -0.065656
 S         -9.849847    2.710721    0.087070
 H        -11.088030   -0.695248   -0.149590
 H         -8.508671   -0.645450   -0.257091
 C         -7.164696    1.876108   -0.075453
 C         -6.531887    3.116096   -0.150208
 C         -5.119040    2.997000   -0.148902
 C         -4.640003    1.703867   -0.073514
 S         -5.977863    0.575878    0.015751
 H         -4.465800    3.861002   -0.218122
 C         -3.274165    1.247084   -0.060352
 C         -2.806397   -0.042913   -0.122828
 C         -1.382976   -0.152482   -0.089526
 C         -0.751611    1.125652   -0.010278
 S         -1.949311    2.418346    0.048359
 H         -3.461891   -0.900466   -0.215160
 C         -0.596105   -1.332453   -0.182313
 C          0.633265    1.308233   -0.029193
 C          0.787258   -1.152103   -0.200991
 C          1.421235    0.127098   -0.119907
 C          2.839849    0.016843   -0.086322
 C          3.311950   -1.280548   -0.153648
 S          1.979786   -2.449707   -0.262073
 H          3.497344    0.872930    0.004245
 C          4.664611   -1.726326   -0.142966
 C          5.148316   -3.036355   -0.178673
 C          6.538873   -3.168294   -0.154224
 C          7.200455   -1.911123   -0.096294
 S          6.008446   -0.594043   -0.078785
 H          4.486039   -3.895221   -0.219615
 C          8.567574   -1.588160   -0.054823
 C          9.132926   -0.288781    0.007207
 C         10.506654   -0.256112    0.036424
 C         11.130283   -1.538578   -0.000880
 S          9.875518   -2.792918   -0.074855
 H          8.520200    0.605847    0.029952
 H         11.079593    0.662844    0.084098
 C         12.501259   -1.796763    0.015847
 C         13.233877   -3.029262   -0.017314
 C         14.600287   -2.835432    0.014932
 C         15.033743   -1.484677    0.073674
 S         13.632198   -0.416942    0.089253
 H         15.315491   -3.651391   -0.003496
 H         17.108615   -1.868844    0.095994
 C         16.368089   -1.071360    0.111976
 C         16.920127    0.201215    0.166441
 O         19.227020   -0.487110    0.181192
 C         18.365031    0.387518    0.196022
 N         18.676692    1.773327    0.246206
 S         17.709867    4.308202    0.317070
 C         17.634416    2.647400    0.259791
 S         16.101478    1.755160    0.206432
 C         -1.190424   -2.677842   -0.257696
 C         -0.975113   -3.651634   -1.202618
 C         -1.680351   -4.864813   -0.946324
 C         -2.435139   -4.835916    0.196439
 S         -2.280886   -3.282530    0.985296
 H         -0.345102   -3.495340   -2.071726
 H         -1.634537   -5.733596   -1.595337
 C          1.225711    2.653079    0.043925
 C          0.983659    3.640005    0.969372
 C          1.694886    4.849864    0.716707
 C          2.481123    4.806623   -0.404423
 S          2.350221    3.243000   -1.176462
 H          0.331412    3.494707    1.823763
 H          1.630738    5.726980    1.352774
 C        -20.162184   -2.071227    0.111385
 H        -20.403356   -2.608457   -0.808772
 H        -20.760579   -1.164582    0.192357
 C         20.068504    2.213532    0.280722
 H         20.685195    1.315729    0.255169
 H         20.257410    2.782140    1.194452
 C        -12.537796    4.355271    0.308725
 H        -13.303363    5.131561    0.393844
 H        -11.937747    4.577499   -0.581587
 C         -7.218322    4.453727   -0.238778
 H         -6.481169    5.248544   -0.383574
 H         -7.779299    4.687072    0.674616
 C          7.220876   -4.508980   -0.184694
 H          7.871656   -4.616942   -1.060546
 H          6.476799   -5.309384   -0.223958
 C         12.607141   -4.394962   -0.080492
 H         11.959473   -4.585583    0.783464
 H         13.382644   -5.165691   -0.092820
 C         -3.298362   -5.918500    0.772903
 H         -2.967643   -6.215011    1.775502
 H         -3.257589   -6.802796    0.129727
 C          3.358992    5.882437   -0.971172
 H          3.300256    6.774920   -0.340874
 H          3.055459    6.165532   -1.986160
 H        -20.344002   -2.727638    0.965487
 H        -11.877751    4.443685    1.179796
 H         -7.924631    4.497188   -1.075990
 H          4.409197    5.570512   -1.018394
 H         -4.346650   -5.606704    0.852736
 H          7.839327   -4.673529    0.705578
 H         11.995845   -4.520670   -0.982052
 H         20.279907    2.848527   -0.582949
       116
S1: Total Energy = -8068.86449997
 S        -16.126321   -1.730884   -0.085195
 C        -17.671192   -2.600216   -0.111497
 S        -17.773562   -4.258770   -0.156517
 N        -18.706716   -1.713792   -0.089560
 C        -18.382962   -0.333260   -0.052495
 O        -19.234597    0.547870   -0.031268
 C        -16.929462   -0.159444   -0.044333
 C        -16.372817    1.092705   -0.007491
 H        -17.103601    1.899766    0.013496
 C        -15.019319    1.508199    0.008586
 C        -14.582660    2.833736    0.050977
 C        -13.191769    3.012943    0.061281
 C        -12.496165    1.788562    0.025301
 S        -13.628621    0.433141   -0.020226
 H        -15.282816    3.662816    0.074487
 C        -11.097674    1.503551    0.021360
 C        -10.493242    0.241211   -0.024782
 C         -9.100301    0.270555   -0.014091
 C         -8.547960    1.556241    0.040686
 S         -9.850517    2.749140    0.079026
 H        -11.063933   -0.679835   -0.066534
 H         -8.492119   -0.626845   -0.046646
 C         -7.165648    1.896262    0.065651
 C         -6.520934    3.151319    0.109694
 C         -5.124657    3.032651    0.119734
 C         -4.633538    1.726835    0.085059
 S         -5.975674    0.590464    0.042114
 H         -4.469873    3.897714    0.148765
 C         -3.284688    1.287382    0.082932
 C         -2.809749   -0.018482    0.008829
 C         -1.404309   -0.131189    0.033348
 C         -0.759786    1.149013    0.109191
 S         -1.951166    2.449937    0.180465
 H         -3.471669   -0.870680   -0.084088
 C         -0.617785   -1.324807   -0.069700
 C          0.617783    1.324788    0.070158
 C          0.759784   -1.149032   -0.108733
 C          1.404307    0.131170   -0.032893
 C          2.809748    0.018465   -0.008392
 C          3.284687   -1.287399   -0.082505
 S          1.951164   -2.449956   -0.180010
 H          3.471668    0.870664    0.084509
 C          4.633537   -1.726849   -0.084669
 C          5.124657   -3.032665   -0.119353
 C          6.520934   -3.151331   -0.109374
 C          7.165649   -1.896273   -0.065373
 S          5.975673   -0.590477   -0.041786
 H          4.469873   -3.897729   -0.148355
 C          8.547961   -1.556248   -0.040495
 C          9.100303   -0.270560    0.014235
 C         10.493245   -0.241213    0.024821
 C         11.097676   -1.503552   -0.021357
 S          9.850519   -2.749145   -0.078903
 H          8.492120    0.626838    0.046822
 H         11.063935    0.679836    0.066519
 C         12.496168   -1.788557   -0.025412
 C         13.191774   -3.012937   -0.061432
 C         14.582665   -2.833723   -0.051258
 C         15.019323   -1.508184   -0.008927
 S         13.628623   -0.433131    0.020000
 H         15.282822   -3.662801   -0.074820
 H         17.103606   -1.899743   -0.014033
 C         16.372820   -1.092684    0.007011
 C         16.929463    0.159468    0.043777
 O         19.234600   -0.547836    0.030497
 C         18.382964    0.333291    0.051792
 N         18.706714    1.713825    0.088796
 S         17.773556    4.258801    0.155794
 C         17.671189    2.600244    0.110819
 S         16.126319    1.730905    0.084689
 C         -1.221752   -2.662448   -0.138042
 C         -0.978090   -3.658078   -1.055148
 C         -1.699548   -4.860348   -0.800737
 C         -2.495549   -4.803635    0.313450
 S         -2.362628   -3.235924    1.075736
 H         -0.319950   -3.522548   -1.906560
 H         -1.636514   -5.741989   -1.430420
 C          1.221751    2.662429    0.138492
 C          0.978091    3.658064    1.055594
 C          1.699552    4.860331    0.801176
 C          2.495550    4.803612   -0.313012
 S          2.362618    3.235901   -1.075296
 H          0.319954    3.522538    1.907009
 H          1.636523    5.741975    1.430856
 C        -20.102900   -2.141852   -0.102993
 H        -20.308282   -2.715604   -1.009873
 H        -20.711364   -1.238555   -0.076417
 C         20.102898    2.141891    0.102078
 H         20.711364    1.238597    0.075459
 H         20.308370    2.715664    1.008924
 C        -12.557915    4.377896    0.105661
 H        -13.330402    5.151866    0.120593
 H        -11.920190    4.562013   -0.767255
 C         -7.213035    4.487423    0.140323
 H         -6.475452    5.294401    0.164579
 H         -7.853330    4.595677    1.023856
 C          7.213035   -4.487434   -0.140032
 H          7.853288   -4.595691   -1.023596
 H          6.475453   -5.294413   -0.164249
 C         12.557922   -4.377892   -0.105735
 H         11.920276   -4.562000    0.767240
 H         13.330410   -5.151859   -0.120726
 C         -3.384763   -5.869751    0.880352
 H         -3.089854   -6.148437    1.899033
 H         -3.328106   -6.766311    0.255838
 C          3.384767    5.869723   -0.879919
 H          3.328116    6.766284   -0.255407
 H          3.089856    6.148409   -1.898601
 H        -20.308788   -2.768526    0.768002
 H        -11.936364    4.512099    0.999180
 H         -7.844680    4.640607   -0.742696
 H          4.432760    5.549505   -0.918176
 H         -4.432758   -5.549537    0.918605
 H          7.844725   -4.640614    0.742957
 H         11.936291   -4.512111   -0.999197
 H         20.308695    2.768548   -0.768951
