       124
S0: Total Energy = -9160.54627326
 C          7.271229   -1.226142   -0.167943
 C          6.812947   -2.502352   -0.428311
 C          5.401334   -2.630591   -0.443523
 C          4.766066   -1.414831   -0.192197
 S          5.934524   -0.130493    0.083561
 C          3.358561   -1.077862   -0.138137
 C          2.810693    0.176267   -0.250029
 C          1.387808    0.216741   -0.109153
 C          0.839874   -1.082579    0.105971
 S          2.108032   -2.303076    0.152051
 H          3.405537    1.056994   -0.458728
 C          0.531647    1.342542   -0.219171
 C         -0.531663   -1.339479    0.205892
 C         -0.839882    1.085649   -0.119221
 C         -1.387820   -0.213651    0.095929
 C         -2.810671   -0.173143    0.236748
 C         -3.358633    1.080975    0.124710
 S         -2.107995    2.306161   -0.165383
 H         -3.405424   -1.053941    0.445405
 C         -4.766111    1.417817    0.179128
 C         -5.401489    2.634636    0.425285
 C         -6.813070    2.505892    0.412664
 C         -7.271333    1.228283    0.159260
 S         -5.934656    0.131797   -0.088668
 C          1.036660    2.709604   -0.427338
 C          0.675901    3.609711   -1.397585
 C          1.326244    4.884010   -1.305457
 C          2.193865    4.951159   -0.240012
 S          2.209307    3.445964    0.653945
 H         -0.024421    3.363986   -2.189874
 C         -1.036672   -2.706543    0.413959
 C         -0.675647   -3.606872    1.383905
 C         -1.326006   -4.881151    1.291676
 C         -2.193921   -4.948076    0.226454
 S         -2.209602   -3.442693   -0.667180
 H          0.024863   -3.361320    2.176081
 C          3.047287    6.093692    0.230278
 H          2.613531    6.590550    1.107646
 H          3.152827    6.846600   -0.555823
 C         -3.047475   -6.090497   -0.243876
 H         -3.153030   -6.843477    0.542152
 H         -2.613832   -6.587297   -1.121334
 H         -4.053237   -5.755929   -0.521054
 H          4.053057    5.759242    0.507572
 H         -7.474251    3.346286    0.600047
 H          7.474141   -3.341964   -0.619107
 C          8.620537   -0.739349   -0.084109
 S         10.018635   -1.840239   -0.281804
 N          8.925249    0.525421    0.143091
 C         11.057222   -0.458563   -0.036916
 C         10.267228    0.669590    0.166927
 N         12.397506   -0.311125   -0.014741
 S         11.303336    2.050290    0.410250
 C         12.701216    0.953731    0.209875
 C         -8.620572    0.740655    0.079511
 S        -10.018803    1.841891    0.274292
 N         -8.925137   -0.525209   -0.141751
 C        -11.057220    0.458790    0.036846
 C        -10.267086   -0.669961   -0.163139
 N        -12.397479    0.310792    0.017009
 S        -11.303007   -2.052057   -0.399182
 C        -12.701031   -0.955112   -0.201857
 C         14.052101    1.439488    0.291388
 C         14.508333    2.729328    0.513629
 S         15.380027    0.327023    0.094304
 C         15.912780    2.850141    0.529799
 H         13.843555    3.574159    0.661555
 C         16.550390    1.620451    0.315064
 C         16.629929    4.155674    0.751696
 C         17.962272    1.429597    0.277925
 H         17.270157    4.118779    1.640602
 H         17.267440    4.416078   -0.101078
 H         15.912241    4.968322    0.891382
 C         18.710155    0.309145    0.078729
 H         18.557411    2.327286    0.434587
 S         18.190156   -1.352425   -0.213103
 C         20.182637    0.387725    0.088394
 C         19.867646   -1.928132   -0.319398
 N         20.738693   -0.891322   -0.138709
 O         20.859504    1.388513    0.262755
 S         20.253746   -3.512494   -0.600014
 C         22.188684   -1.072729   -0.174888
 H         22.493951   -1.777304    0.602060
 H         22.636636   -0.095098   -0.001079
 H         22.489637   -1.463867   -1.149468
 C        -14.051829   -1.441742   -0.279534
 C        -14.507794   -2.732548   -0.496656
 S        -15.379989   -0.329220   -0.084353
 C        -15.912204   -2.854085   -0.510277
 H        -13.842849   -3.577564   -0.642752
 C        -16.550074   -1.623966   -0.298796
 C        -16.629023   -4.160727   -0.726668
 C        -17.961986   -1.433616   -0.260203
 H        -17.266611   -4.417657    0.127088
 H        -17.269111   -4.127774   -1.615843
 H        -15.911116   -4.973785   -0.862789
 C        -18.710092   -0.312997   -0.062802
 H        -18.556961   -2.331952   -0.413748
 S        -18.190468    1.349501    0.224362
 C        -20.182550   -0.392291   -0.070187
 C        -19.868080    1.924669    0.331684
 N        -20.738890    0.887014    0.154749
 O        -20.859189   -1.393806   -0.241223
 S        -20.254527    3.509473    0.609319
 C        -22.188916    1.067777    0.192737
 H        -22.488557    1.461068    1.166853
 H        -22.636635    0.089507    0.021951
 H        -22.495747    1.770344   -0.585411
 C          4.725054   -3.947539   -0.727299
 H          4.270229   -4.375251    0.174491
 H          3.933705   -3.848654   -1.477189
 H          5.453998   -4.672532   -1.100998
 C         -4.725418    3.953347    0.701253
 H         -3.935410    3.859458    1.453233
 H         -4.268919    4.374830   -0.202608
 H         -5.454853    4.680993    1.068761
 C          1.048909    5.995727   -2.284809
 H          0.056622    6.434283   -2.117557
 H          1.780772    6.804393   -2.211230
 H          1.066408    5.622531   -3.315343
 C         -1.048456   -5.993042    2.270770
 H         -1.779741   -6.802162    2.196508
 H         -0.055788   -6.430861    2.103875
 H         -1.066736   -5.620239    3.301439
       124
T1: Total Energy = -9160.50323058
 C         -7.256452   -1.225582    0.246283
 C         -6.804382   -2.505335    0.502847
 C         -5.394977   -2.632055    0.561260
 C         -4.752507   -1.410791    0.347261
 S         -5.915901   -0.123192    0.056168
 C         -3.347098   -1.074088    0.338257
 C         -2.805165    0.190150    0.400931
 C         -1.381894    0.228867    0.330974
 C         -0.819234   -1.078776    0.223582
 S         -2.080726   -2.306631    0.191198
 H         -3.410616    1.079765    0.523071
 C         -0.534831    1.368514    0.416792
 C          0.554738   -1.333907    0.210388
 C          0.837059    1.115989    0.400599
 C          1.402068   -0.192621    0.291864
 C          2.819912   -0.152291    0.219464
 C          3.368972    1.118462    0.285261
 S          2.094768    2.348537    0.438585
 H          3.424944   -1.042283    0.098915
 C          4.761699    1.439183    0.244703
 C          5.418987    2.689525    0.241621
 C          6.810924    2.557861    0.184129
 C          7.275442    1.237538    0.143729
 S          5.929052    0.113598    0.182827
 C         -1.057124    2.740840    0.519488
 C         -0.753917    3.695409    1.457026
 C         -1.404113    4.957431    1.259591
 C         -2.212395    4.959107    0.146243
 S         -2.172510    3.407229   -0.662762
 H         -0.097238    3.498418    2.298750
 C          1.075010   -2.705333    0.113524
 C          0.740121   -3.676794   -0.796851
 C          1.397409   -4.934347   -0.600895
 C          2.243741   -4.917144    0.484290
 S          2.231511   -3.352493    1.267542
 H          0.056984   -3.493949   -1.620361
 C         -3.042301    6.068529   -0.432670
 H         -2.557039    6.525820   -1.304536
 H         -3.202007    6.857978    0.307054
 C          3.092210   -6.017714    1.052840
 H          3.242578   -6.810268    0.314390
 H          2.626883   -6.473216    1.936466
 H          4.079678   -5.651914    1.354461
 H         -4.026199    5.711039   -0.755611
 H          7.478463    3.413146    0.170091
 H         -7.469862   -3.348943    0.656901
 C         -8.602937   -0.740445    0.122133
 S        -10.005430   -1.843075    0.267546
 N         -8.900930    0.525757   -0.107440
 C        -11.036179   -0.461258   -0.004561
 C        -10.240966    0.669249   -0.175320
 N        -12.374892   -0.315408   -0.071919
 S        -11.270125    2.050013   -0.446914
 C        -12.672408    0.950394   -0.300356
 C          8.597378    0.760114    0.082748
 S         10.013317    1.878942    0.040321
 N          8.915259   -0.544908    0.051570
 C         11.046454    0.474011   -0.021384
 C         10.227001   -0.696255   -0.004079
 N         12.355777    0.334470   -0.077609
 S         11.255780   -2.108143   -0.065604
 C         12.678456   -0.982823   -0.109448
 C        -14.020375    1.434030   -0.426998
 C        -14.471535    2.724301   -0.657085
 S        -15.351688    0.317072   -0.286210
 C        -15.874704    2.841798   -0.724307
 H        -13.803998    3.571727   -0.774566
 C        -16.516363    1.609024   -0.541213
 C        -16.586606    4.146897   -0.964665
 C        -17.928270    1.413845   -0.557033
 H        -17.188926    4.115606   -1.879890
 H        -17.260044    4.397973   -0.137141
 H        -15.866571    4.962979   -1.067429
 C        -18.678562    0.289742   -0.390847
 H        -18.520450    2.310366   -0.730693
 S        -18.163162   -1.371214   -0.088590
 C        -20.150353    0.363104   -0.452628
 C        -19.841437   -1.953198   -0.043226
 N        -20.709392   -0.918591   -0.249778
 O        -20.823919    1.362238   -0.647344
 S        -20.231049   -3.539984    0.216912
 C        -22.159122   -1.105431   -0.265128
 H        -22.434756   -1.804815   -1.057717
 H        -22.604678   -0.128095   -0.446547
 H        -22.491799   -1.505527    0.695360
 C         13.984285   -1.453271   -0.171393
 C         14.456910   -2.790133   -0.211850
 S         15.338913   -0.317391   -0.211895
 C         15.828474   -2.916016   -0.272468
 H         13.783606   -3.641093   -0.196650
 C         16.501428   -1.646809   -0.282934
 C         16.557269   -4.229571   -0.322910
 C         17.887039   -1.482354   -0.343359
 H         17.162922   -4.317709   -1.232886
 H         17.236073   -4.344262    0.530740
 H         15.850656   -5.063481   -0.306121
 C         18.664371   -0.332466   -0.363886
 H         18.475693   -2.396112   -0.383290
 S         18.157170    1.347030   -0.316775
 C         20.119679   -0.423509   -0.436044
 C         19.831756    1.932451   -0.392213
 N         20.689118    0.876735   -0.448405
 O         20.795422   -1.446329   -0.481620
 S         20.220749    3.547396   -0.390458
 C         22.137951    1.047321   -0.520033
 H         22.402144    1.612373   -1.417065
 H         22.573930    0.049493   -0.555063
 H         22.492976    1.589761    0.359398
 C         -4.727837   -3.953529    0.843274
 H         -4.202823   -4.341794   -0.037859
 H         -3.995679   -3.878615    1.654112
 H         -5.474602   -4.697920    1.133877
 C          4.747989    4.036501    0.288006
 H          4.061963    4.179343   -0.554473
 H          4.169254    4.171430    1.209035
 H          5.497137    4.831928    0.247104
 C         -1.186253    6.124015    2.188917
 H         -0.196030    6.573091    2.038087
 H         -1.928755    6.913058    2.043462
 H         -1.239259    5.804806    3.236164
 C          1.148985   -6.117418   -1.501128
 H          1.905713   -6.896665   -1.377817
 H          0.171581   -6.573689   -1.297566
 H          1.150332   -5.814160   -2.554327
       124
S1: Total Energy = -9160.48862979
 C         -7.246574   -1.265530   -0.032945
 C         -6.785361   -2.577789   -0.000853
 C         -5.386236   -2.708462   -0.006708
 C         -4.735770   -1.459295   -0.041232
 S         -5.912000   -0.139166   -0.075451
 C         -3.347351   -1.135134   -0.048003
 C         -2.802012    0.148861    0.003682
 C         -1.395687    0.195264   -0.036657
 C         -0.814844   -1.112226   -0.097881
 S         -2.067649   -2.352780   -0.132526
 H         -3.418864    1.032948    0.100827
 C         -0.553851    1.356704    0.052660
 C          0.553819   -1.356743   -0.053858
 C          0.814808    1.112188    0.096687
 C          1.395654   -0.195305    0.035469
 C          2.801980   -0.148902   -0.004829
 C          3.347319    1.135096    0.046891
 S          2.067614    2.352743    0.131349
 H          3.418838   -1.032986   -0.101950
 C          4.735731    1.459266    0.040201
 C          5.386195    2.708431    0.005705
 C          6.785323    2.577774    0.000015
 C          7.246548    1.265516    0.032187
 S          5.911974    0.139136    0.074467
 C         -1.091584    2.717987    0.105086
 C         -0.748430    3.730049    0.973201
 C         -1.423905    4.967363    0.744703
 C         -2.292010    4.897750   -0.324223
 S         -2.281321    3.308160   -1.045617
 H         -0.052964    3.584566    1.793516
 C          1.091550   -2.718026   -0.106272
 C          0.748387   -3.730099   -0.974372
 C          1.423871   -4.967408   -0.745873
 C          2.291992   -4.897780    0.323040
 S          2.281293   -3.308188    1.044430
 H          0.052918   -3.584624   -1.794686
 C         -3.152948    5.977113   -0.912642
 H         -2.623459    6.530455   -1.699103
 H         -3.445312    6.698759   -0.143461
 C          3.152953   -5.977126    0.911455
 H          3.445226   -6.698834    0.142299
 H          2.623522   -6.530396    1.698006
 H          4.067754   -5.570147    1.353472
 H         -4.067696    5.570140   -1.354772
 H          7.450748    3.434157   -0.029631
 H         -7.450790   -3.434166    0.028890
 C         -8.586369   -0.778667   -0.038301
 S         -9.991974   -1.891101    0.000852
 N         -8.894015    0.513809   -0.073213
 C        -11.025287   -0.486683   -0.032696
 C        -10.224672    0.664433   -0.070117
 N        -12.357490   -0.340739   -0.029406
 S        -11.261495    2.070780   -0.104670
 C        -12.668205    0.951770   -0.065500
 C          8.586342    0.778667    0.037756
 S          9.991951    1.891111   -0.001129
 N          8.894005   -0.513808    0.072773
 C         11.025276    0.486701    0.032571
 C         10.224655   -0.664424    0.069894
 N         12.357473    0.340788    0.029486
 S         11.261492   -2.070770    0.104662
 C         12.668217   -0.951732    0.065638
 C        -14.004022    1.441616   -0.072098
 C        -14.461222    2.758577   -0.117510
 S        -15.346105    0.318184   -0.018140
 C        -15.856049    2.888283   -0.110120
 H        -13.790995    3.611353   -0.156486
 C        -16.511019    1.640465   -0.056754
 C        -16.570272    4.212922   -0.153568
 C        -17.915306    1.460306   -0.035418
 H        -17.219958    4.292602   -1.033117
 H        -17.200442    4.360886    0.731337
 H        -15.851753    5.036038   -0.193366
 C        -18.679756    0.324141    0.022028
 H        -18.504755    2.374471   -0.068505
 S        -18.167628   -1.363292    0.093867
 C        -20.142312    0.411010    0.034286
 C        -19.842764   -1.942983    0.142594
 N        -20.705931   -0.888005    0.102878
 O        -20.822942    1.428620   -0.006112
 S        -20.237488   -3.554207    0.225028
 C        -22.155806   -1.062535    0.128681
 H        -22.475471   -1.652611   -0.733573
 H        -22.596390   -0.066734    0.094280
 H        -22.451870   -1.581210    1.043500
 C         14.004006   -1.441562    0.072493
 C         14.461214   -2.758539    0.118009
 S         15.346126   -0.318131    0.018761
 C         15.856019   -2.888250    0.110933
 H         13.790972   -3.611309    0.156855
 C         16.511040   -1.640426    0.057731
 C         16.570235   -4.212886    0.154586
 C         17.915307   -1.460288    0.036777
 H         17.200741   -4.360808   -0.730087
 H         17.219597   -4.292598    1.034374
 H         15.851708   -5.036011    0.194082
 C         18.679818   -0.324121   -0.020488
 H         18.504741   -2.374455    0.070048
 S         18.167716    1.363317   -0.092515
 C         20.142342   -0.410999   -0.032341
 C         19.842849    1.943005   -0.140811
 N         20.705993    0.888030   -0.100799
 O         20.822990   -1.428604    0.008307
 S         20.237615    3.554249   -0.223131
 C         22.155872    1.062546   -0.126161
 H         22.452228    1.581177   -1.040911
 H         22.596433    0.066740   -0.091579
 H         22.475280    1.652660    0.736162
 C         -4.710984   -4.052443    0.027097
 H         -4.107423   -4.227054   -0.871631
 H         -4.046391   -4.153421    0.892961
 H         -5.457385   -4.849198    0.084659
 C          4.710935    4.052406   -0.028166
 H          4.046423    4.153379   -0.894092
 H          4.107285    4.227011    0.870505
 H          5.457333    4.849169   -0.085657
 C         -1.181218    6.195804    1.583294
 H         -0.321292    6.769207    1.213380
 H         -2.044166    6.868158    1.584300
 H         -0.967794    5.923100    2.622160
 C          1.181182   -6.195850   -1.584460
 H          2.044104   -6.868237   -1.585416
 H          0.321214   -6.769216   -1.214584
 H          0.967821   -5.923151   -2.623342
