       102
S0: Total Energy = -7835.46188787
 C         -5.303105   -0.521225    0.086456
 C         -4.591097   -1.699415    0.216848
 C         -3.195717   -1.480853    0.162309
 C         -2.823792   -0.154326   -0.008802
 C         -1.406914    0.066220   -0.036620
 C         -0.713591   -1.175160    0.113441
 C          0.678734   -1.271623    0.157159
 S         -4.229032    0.871837   -0.122385
 S         -1.812886   -2.556123    0.289581
 H         -5.056829   -2.667613    0.361078
 C          5.303106    0.521226   -0.086462
 C          4.591097    1.699415   -0.216854
 C          3.195717    1.480853   -0.162315
 C          2.823792    0.154327    0.008796
 C          1.406914   -0.066219    0.036615
 C          0.713591    1.175161   -0.113447
 C         -0.678734    1.271623   -0.157165
 S          4.229032   -0.871837    0.122379
 S          1.812886    2.556124   -0.289587
 H          5.056829    2.667613   -0.361084
 C         -6.733600   -0.336972    0.093119
 C         -7.455839    0.838037    0.166896
 C         -8.864300    0.678507    0.154330
 C         -9.242646   -0.661410    0.070706
 S         -7.821724   -1.704200   -0.007272
 H         -6.984693    1.812423    0.245985
 C          6.733600    0.336973   -0.093125
 C          7.455839   -0.838037   -0.166901
 C          8.864300   -0.678507   -0.154336
 C          9.242647    0.661410   -0.070712
 S          7.821724    1.704200    0.007266
 H          6.984693   -1.812422   -0.245991
 C        -10.543052   -1.277583    0.040337
 C        -10.828241   -2.642052    0.007966
 C        -12.197153   -2.936861   -0.024828
 C        -13.019768   -1.814036   -0.018344
 S        -12.039012   -0.355094    0.028979
 H        -10.056049   -3.403157    0.011737
 H        -12.597185   -3.944854   -0.050610
 C         10.543052    1.277584   -0.040343
 C         10.828241    2.642052   -0.007973
 C         12.197154    2.936861    0.024820
 C         13.019768    1.814036    0.018338
 S         12.039012    0.355094   -0.028985
 H         10.056049    3.403158   -0.011744
 H         12.597186    3.944854    0.050602
 C        -14.442416   -1.842673   -0.043482
 C        -15.360924   -0.836503   -0.038046
 C        -16.800294   -1.138314   -0.069504
 O        -17.318037   -2.244058   -0.102317
 N        -17.548533    0.062976   -0.056601
 C        -16.849317    1.235024   -0.019252
 S        -17.478140    2.767597    0.002978
 S        -15.104091    0.911663    0.003799
 H        -14.878757   -2.840404   -0.072320
 C         14.442416    1.842673    0.043475
 C         15.360924    0.836503    0.038039
 C         16.800294    1.138313    0.069494
 O         17.318037    2.244057    0.102332
 N         17.548532   -0.062977    0.056617
 C         16.849317   -1.235025    0.019263
 S         17.478139   -2.767599   -0.002929
 S         15.104090   -0.911663   -0.003806
 H         14.878758    2.840404    0.072312
 C          1.361028   -2.571621    0.328504
 C          1.988470   -3.062972    1.445756
 C          2.547081   -4.363189    1.260086
 C          2.353182   -4.874167    0.003621
 S          1.463975   -3.738437   -0.984025
 H          2.040022   -2.510703    2.378107
 H          3.074015   -4.906438    2.038018
 C         -1.361028    2.571621   -0.328510
 C         -1.988469    3.062973   -1.445761
 C         -2.547081    4.363190   -1.260092
 C         -2.353182    4.874167   -0.003626
 S         -1.463975    3.738437    0.984020
 H         -2.040021    2.510704   -2.378113
 H         -3.074015    4.906439   -2.038024
 C          2.795564   -6.199748   -0.541869
 H          3.468352   -6.084997   -1.400056
 H          3.330234   -6.756584    0.233631
 C         -2.795564    6.199749    0.541864
 H         -3.330234    6.756584   -0.233636
 H         -3.468352    6.084997    1.400051
 C         -9.798430    1.856216    0.235608
 H        -10.466939    1.790054    1.102213
 H         -9.229134    2.785363    0.326002
 C          9.798430   -1.856216   -0.235614
 H          9.229134   -2.785362   -0.326008
 H         10.466939   -1.790054   -1.102219
 C        -19.009117    0.024199   -0.082921
 H        -19.299091   -1.025405   -0.113645
 H        -19.378642    0.549717   -0.966455
 C         19.009116   -0.024201    0.082968
 H         19.378622   -0.549712    0.966514
 H         19.299090    1.025404    0.113689
 H         19.409880   -0.505959   -0.811872
 H         10.429330   -1.939920    0.657598
 H          1.945968   -6.809892   -0.870661
 H         -1.945968    6.809893    0.870656
 H        -10.429330    1.939920   -0.657604
 H        -19.409863    0.505949    0.811932
       102
T1: Total Energy = -7835.41627631
 C          5.314406   -0.524309    0.000975
 C          4.583283   -1.719637   -0.097154
 C          3.204619   -1.495353   -0.064185
 C          2.826243   -0.151573    0.061620
 C          1.418589    0.067569    0.070582
 C          0.721268   -1.179497   -0.047584
 C         -0.666025   -1.276360   -0.104000
 S          4.228578    0.885035    0.147122
 S          1.819222   -2.570113   -0.165747
 H          5.049829   -2.693151   -0.192018
 C         -5.289843    0.522663    0.022591
 C         -4.578879    1.706582    0.125947
 C         -3.185256    1.488746    0.098395
 C         -2.808768    0.155101   -0.026918
 C         -1.396508   -0.063646   -0.031855
 C         -0.702861    1.182551    0.086427
 C          0.687127    1.280593    0.146266
 S         -4.211877   -0.876580   -0.124078
 S         -1.805293    2.567858    0.206685
 H         -5.047108    2.679090    0.226260
 C          6.711672   -0.358466    0.002652
 C          7.457286    0.836130    0.088900
 C          8.833536    0.693537    0.068569
 C          9.241737   -0.681301   -0.038186
 S          7.810078   -1.738754   -0.111136
 H          6.976365    1.806276    0.164844
 C         -6.717955    0.339098    0.016035
 C         -7.440520   -0.839513    0.009473
 C         -8.847773   -0.681074    0.006714
 C         -9.227809    0.661994    0.012076
 S         -7.808184    1.709345    0.013972
 H         -6.969285   -1.817080    0.015050
 C         10.509664   -1.257477   -0.086673
 C         10.811740   -2.648964   -0.188417
 C         12.150272   -2.945332   -0.215504
 C         13.006855   -1.808719   -0.137249
 S         12.036723   -0.335620   -0.026895
 H         10.033088   -3.402262   -0.238441
 H         12.551560   -3.950090   -0.289241
 C        -10.528348    1.276798    0.015360
 C        -10.814889    2.641617    0.033993
 C        -12.183927    2.935965    0.029994
 C        -13.005893    1.812518    0.008277
 S        -12.024193    0.353754   -0.007733
 H        -10.043246    3.403113    0.050986
 H        -12.584866    3.943815    0.043168
 C         14.401274   -1.857195   -0.146220
 C         15.343769   -0.837144   -0.076605
 C         16.770380   -1.137422   -0.102902
 O         17.292568   -2.245497   -0.183389
 N         17.523038    0.064564   -0.020192
 C         16.828098    1.230761    0.065135
 S         17.445375    2.770558    0.172112
 S         15.084797    0.893434    0.047301
 H         14.837898   -2.851557   -0.219244
 C        -14.428713    1.840682    0.001291
 C        -15.346242    0.833694   -0.018653
 C        -16.786288    1.134744   -0.021197
 O        -17.304932    2.240420   -0.007031
 N        -17.533378   -0.067026   -0.043084
 C        -16.832908   -1.238833   -0.057475
 S        -17.459868   -2.771960   -0.083843
 S        -15.087611   -0.914266   -0.043791
 H        -14.866080    2.838279    0.014075
 C         -1.348809   -2.580691   -0.237372
 C         -1.947955   -3.118736   -1.348660
 C         -2.516394   -4.407944   -1.121048
 C         -2.358363   -4.863504    0.161581
 S         -1.491649   -3.687882    1.122006
 H         -1.972870   -2.607614   -2.305266
 H         -3.024162   -4.983619   -1.888332
 C          1.369072    2.582630    0.291789
 C          2.017724    3.083577    1.393135
 C          2.568068    4.383900    1.187609
 C          2.347607    4.885629   -0.068369
 S          1.442276    3.741068   -1.030497
 H          2.087973    2.538897    2.328681
 H          3.107852    4.934360    1.951478
 C         -2.819821   -6.162750    0.752768
 H         -3.510739   -6.008553    1.590062
 H         -3.340147   -6.749706   -0.010124
 C          2.775782    6.208236   -0.632022
 H          3.323512    6.772333    0.128949
 H          3.432527    6.088570   -1.501850
 C          9.772367    1.865639    0.150922
 H         10.415714    1.937600   -0.733800
 H          9.204074    2.796931    0.224601
 C         -9.780883   -1.862325    0.003540
 H         -9.210476   -2.795149    0.009004
 H        -10.436334   -1.868672    0.882595
 C         18.982861    0.021653   -0.028926
 H         19.268893   -1.026744   -0.106692
 H         19.373889    0.458011    0.893296
 C        -18.994247   -0.029073   -0.049727
 H        -19.374510   -0.517868   -0.949676
 H        -19.285420    1.020524   -0.033381
 H        -19.383206   -0.548127    0.829286
 H        -10.424960   -1.872463   -0.883945
 H         -1.980888   -6.762020    1.125957
 H          1.918300    6.813395   -0.949247
 H         10.426949    1.804955    1.028245
 H         19.366661    0.587753   -0.880939
       102
S1: Total Energy = -7835.39763482
 C          5.292263   -0.526068    0.033318
 C          4.568065   -1.721002   -0.053895
 C          3.189837   -1.502345   -0.031306
 C          2.805603   -0.152084    0.078299
 C          1.409206    0.063086    0.073919
 C          0.707878   -1.187930   -0.040296
 C         -0.672732   -1.285895   -0.123476
 S          4.210849    0.883276    0.157612
 S          1.811137   -2.578788   -0.132773
 H          5.037520   -2.694250   -0.136566
 C         -5.292261    0.526055   -0.033057
 C         -4.568063    1.720988    0.054164
 C         -3.189835    1.502329    0.031610
 C         -2.805601    0.152067   -0.077981
 C         -1.409204   -0.063104   -0.073585
 C         -0.707877    1.187912    0.040633
 C          0.672733    1.285876    0.123815
 S         -4.210847   -0.883291   -0.157318
 S         -1.811135    2.578770    0.133097
 H         -5.037519    2.694238    0.136812
 C          6.699985   -0.353936    0.038078
 C          7.434875    0.831263    0.104598
 C          8.827907    0.676963    0.089338
 C          9.217047   -0.676838    0.008755
 S          7.796139   -1.727133   -0.047307
 H          6.961242    1.806125    0.161980
 C         -6.699984    0.353926   -0.037868
 C         -7.434874   -0.831272   -0.104409
 C         -8.827906   -0.676968   -0.089220
 C         -9.217046    0.676835   -0.008679
 S         -7.796138    1.727128    0.047441
 H         -6.961240   -1.806136   -0.161758
 C         10.507644   -1.277826   -0.029808
 C         10.799528   -2.649214   -0.097749
 C         12.159955   -2.943854   -0.122374
 C         12.992471   -1.818107   -0.075097
 S         12.013720   -0.355578    0.002572
 H         10.026480   -3.409293   -0.126788
 H         12.560196   -3.950721   -0.173060
 C        -10.507644    1.277829    0.029791
 C        -10.799527    2.649219    0.097699
 C        -12.159955    2.943865    0.122203
 C        -12.992472    1.818121    0.074860
 S        -12.013721    0.355587   -0.002702
 H        -10.026478    3.409295    0.126795
 H        -12.560196    3.950734    0.172843
 C         14.407294   -1.848446   -0.087199
 C         15.331489   -0.836017   -0.047098
 C         16.765693   -1.130579   -0.071026
 O         17.293611   -2.235058   -0.124879
 N         17.510075    0.075623   -0.021989
 C         16.808723    1.243107    0.036020
 S         17.429755    2.783218    0.100758
 S         15.067509    0.906429    0.033935
 H         14.846128   -2.843942   -0.136876
 C        -14.407296    1.848466    0.086826
 C        -15.331491    0.836040    0.046648
 C        -16.765695    1.130609    0.070423
 O        -17.293615    2.235088    0.124258
 N        -17.510077   -0.075594    0.021390
 C        -16.808724   -1.243082   -0.036536
 S        -17.429754   -2.783195   -0.101233
 S        -15.067509   -0.906408   -0.034334
 H        -14.846130    2.843964    0.136445
 C         -1.358180   -2.585073   -0.265755
 C         -2.025322   -3.077004   -1.360824
 C         -2.574199   -4.377388   -1.155747
 C         -2.335820   -4.887884    0.093752
 S         -1.414349   -3.751838    1.050008
 H         -2.107561   -2.526988   -2.292251
 H         -3.125804   -4.922075   -1.915178
 C          1.358181    2.585055    0.266089
 C          2.025330    3.076987    1.361153
 C          2.574204    4.377371    1.156073
 C          2.335817    4.887867   -0.093424
 S          1.414340    3.751821   -1.049674
 H          2.107575    2.526971    2.292580
 H          3.125814    4.922059    1.915501
 C         -2.758365   -6.213113    0.655243
 H         -3.401124   -6.097349    1.535905
 H         -3.319199   -6.770819   -0.100779
 C          2.758358    6.213096   -0.654917
 H          3.319196    6.770802    0.101101
 H          3.401111    6.097332   -1.535583
 C          9.765084    1.852740    0.153970
 H         10.407363    1.913004   -0.732546
 H          9.196970    2.784977    0.215790
 C         -9.765083   -1.852743   -0.153891
 H         -9.196968   -2.784982   -0.215660
 H        -10.407417   -1.912989    0.732587
 C         18.970147    0.040470   -0.034691
 H         19.261686   -1.007857   -0.088915
 H         19.361967    0.500350    0.875689
 C        -18.970150   -0.040440    0.034012
 H        -19.361920   -0.500352   -0.876374
 H        -19.261690    1.007890    0.088181
 H        -19.348140   -0.588680    0.900143
 H        -10.421802   -1.804482   -1.030501
 H         -1.897344   -6.821998    0.955079
 H          1.897335    6.821981   -0.954748
 H         10.421858    1.804466    1.030539
 H         19.348088    0.588743   -0.900823
