        93
S0: Total Energy = -6337.24286676
 C         10.504269   -0.998765   -0.311099
 C         11.130825   -2.238158   -0.491941
 C         12.535807   -2.131442   -0.444866
 C         13.028989   -0.851249   -0.231285
 S         11.693176    0.276498   -0.077344
 H         13.194700   -2.985174   -0.568759
 C          9.108730   -0.643070   -0.291924
 C          8.564485    0.624961   -0.171970
 S          7.809571   -1.821490   -0.407938
 C          7.151336    0.685047   -0.177017
 H          9.175370    1.518304   -0.089649
 C          6.572216   -0.576790   -0.309999
 C          1.260213   -0.827172   -0.173903
 C          0.698093    0.437263   -0.096799
 S          0.000009   -2.043336   -0.000871
 C         -0.698016    0.437214    0.096744
 H          1.283336    1.346523   -0.181996
 C         -1.260162   -0.827259    0.173020
 H         -1.283239    1.346428    0.182562
 C         -6.572173   -0.576931    0.309290
 C         -7.151271    0.684875    0.175842
 S         -7.809585   -1.821488    0.408430
 C         -8.564423    0.624884    0.171386
 C         -9.108710   -0.643045    0.292229
 H         -9.175272    1.518224    0.088768
 C        -10.504258   -0.998656    0.312001
 C        -11.130819   -2.237953    0.493485
 S        -11.693176    0.276573    0.078099
 C        -12.535808   -2.131202    0.446714
 C        -13.028994   -0.851071    0.232761
 H        -13.194703   -2.984863    0.571079
 C         14.408306   -0.510268   -0.149294
 H         15.094750   -1.348094   -0.264734
 C         15.024087    0.688626    0.049172
 S         14.308868    2.287848    0.281238
 N         16.891619    2.117042    0.307947
 C         18.309334    2.461766    0.390239
 H         18.564046    3.176843   -0.395410
 H         18.869917    1.536682    0.260890
 C         16.492071    0.776751    0.092862
 O         17.286483   -0.142471   -0.033011
 C         15.904035    3.051765    0.431998
 C        -14.408317   -0.510094    0.150883
 H        -15.094754   -1.347862    0.266780
 C        -15.024119    0.688722   -0.048000
 S        -14.308934    2.287849   -0.280826
 N        -16.891684    2.116994   -0.307319
 C        -18.309406    2.461656   -0.389730
 H        -18.564168    3.176915    0.395737
 H        -18.869967    1.536589   -0.260163
 C        -16.492106    0.776816   -0.091594
 O        -17.286499   -0.142355    0.034770
 C        -15.904121    3.051679   -0.431828
 C         10.433748   -3.554221   -0.717565
 H          9.790414   -3.530085   -1.604857
 H          9.805042   -3.836339    0.135409
 C        -10.433740   -3.553964    0.719405
 H         -9.790116   -3.529516    1.606477
 H         -9.805327   -3.836443   -0.133667
 C          6.407450    1.990068   -0.063654
 H          5.857052    2.065576    0.882235
 H          5.681585    2.118869   -0.874456
 C         -6.407352    1.989780    0.061390
 H         -5.856417    2.064215   -0.884266
 H         -5.681952    2.119543    0.872466
 H        -18.527023    2.908273   -1.362648
 H        -11.169790   -4.349687    0.864765
 H         11.169804   -4.350040   -0.862374
 H         18.526973    2.908625    1.363042
 H          7.106917    2.829963   -0.104128
 H         -7.106863    2.829702    0.100499
 C         -2.658345   -1.165387    0.309852
 C         -3.280847   -2.351173    0.690191
 S         -3.852088    0.083641   -0.021627
 C         -4.691909   -2.227575    0.725000
 C         -5.189039   -0.983096    0.380218
 H         -5.332931   -3.050626    1.024644
 C          2.658393   -1.165236   -0.310941
 C          3.280883   -2.350790   -0.692021
 S          3.852149    0.083597    0.021227
 C          4.691949   -2.227169   -0.726817
 C          5.189077   -0.982898   -0.381297
 H          5.332970   -3.050015   -1.027029
 C         -2.583035   -3.634621    1.059012
 H         -2.153103   -4.133199    0.181192
 H         -1.766883   -3.466854    1.770358
 H         -3.289827   -4.332333    1.517736
 C          2.583059   -3.634013   -1.061606
 H          2.153028   -4.133052   -0.184097
 H          1.766980   -3.465833   -1.772939
 H          3.289870   -4.331501   -1.520642
 S        -16.100285    4.676583   -0.687680
 S         16.100159    4.676786    0.687133
        93
T1: Total Energy = -6337.20324044
 C        -10.483012   -1.022698   -0.029482
 C        -11.176906   -2.267702   -0.066656
 C        -12.554921   -2.107843   -0.084286
 C        -13.019919   -0.775587   -0.063113
 S        -11.645239    0.324541   -0.018451
 H        -13.246414   -2.943942   -0.112655
 C         -9.111283   -0.729264   -0.002863
 C         -8.521341    0.559583    0.036336
 S         -7.830368   -1.947600   -0.014987
 C         -7.137902    0.593908    0.055628
 H         -9.122422    1.462408    0.050532
 C         -6.553873   -0.707123    0.031424
 C         -1.289977   -1.050685    0.070052
 C         -0.704650    0.229110    0.107720
 S         -0.009149   -2.272595    0.041505
 C          0.684588    0.226509    0.112509
 H         -1.293991    1.138938    0.131244
 C          1.264965   -1.050228    0.078954
 H          1.275564    1.135409    0.139989
 C          6.553538   -0.694627    0.070508
 C          7.104652    0.591697    0.125232
 S          7.826540   -1.909784   -0.009558
 C          8.513739    0.568690    0.103432
 C          9.092686   -0.691516    0.032822
 H          9.102134    1.479626    0.142423
 C         10.494504   -1.004078   -0.008172
 C         11.158471   -2.238546   -0.047782
 S         11.646694    0.326833   -0.012315
 C         12.558113   -2.084547   -0.077365
 C         13.013881   -0.771770   -0.063025
 H         13.241686   -2.927090   -0.108079
 C        -14.369130   -0.389191   -0.076343
 H        -15.088357   -1.206055   -0.105091
 C        -14.951144    0.863867   -0.059353
 S        -14.168564    2.442219   -0.013046
 N        -16.743700    2.397176   -0.057027
 C        -18.145087    2.805918   -0.071833
 H        -18.375392    3.382190    0.827554
 H        -18.740084    1.893837   -0.104092
 C        -16.400147    1.017588   -0.080143
 O        -17.243721    0.126046   -0.112944
 C        -15.721869    3.295391   -0.020854
 C         14.381457   -0.380214   -0.086792
 H         15.094487   -1.202891   -0.120524
 C         14.957521    0.855009   -0.074578
 S         14.189550    2.444949   -0.022641
 N         16.775900    2.367885   -0.085669
 C         18.181117    2.768475   -0.110578
 H         18.376026    3.384771   -0.991240
 H         18.772025    1.854033   -0.145911
 C         16.421604    0.998103   -0.106034
 O         17.245881    0.097433   -0.144404
 C         15.757948    3.276671   -0.042314
 C        -10.516751   -3.619647   -0.085037
 H         -9.894770   -3.781810    0.803404
 H         -9.872053   -3.746789   -0.962954
 C         10.499168   -3.592478   -0.056596
 H          9.861811   -3.731502   -0.937968
 H          9.872451   -3.748172    0.829391
 C         -6.362832    1.882209    0.097965
 H         -5.710750    1.992411   -0.776653
 H         -5.727762    1.944511    0.989614
 C          6.329079    1.879773    0.203211
 H          5.684208    1.915411    1.089248
 H          5.687586    2.024225   -0.674386
 H         18.419402    3.343866    0.786972
 H         11.257159   -4.380623   -0.069160
 H        -11.273384   -4.408813   -0.110456
 H        -18.343993    3.424830   -0.950084
 H         -7.046388    2.735386    0.114511
 H          7.013333    2.731122    0.256475
 C          2.655131   -1.363263    0.070829
 C          3.326083   -2.597891    0.043776
 S          3.817885   -0.033826    0.096689
 C          4.723580   -2.446069    0.044206
 C          5.188935   -1.134161    0.070680
 H          5.392711   -3.300205    0.026833
 C         -2.669109   -1.353678    0.053735
 C         -3.353725   -2.597773    0.019869
 S         -3.832320   -0.013348    0.074775
 C         -4.733868   -2.448618    0.011321
 C         -5.213833   -1.117495    0.036889
 H         -5.406460   -3.299330   -0.013580
 C          2.669489   -3.952140    0.018385
 H          2.033669   -4.114379    0.896881
 H          2.039927   -4.084200   -0.869688
 H          3.427336   -4.740449    0.007446
 C         -2.690203   -3.948037   -0.004471
 H         -2.053012   -4.072004   -0.888081
 H         -2.060258   -4.107349    0.878621
 H         -3.443835   -4.740027   -0.023519
 S         15.897983    4.926903   -0.010626
 S        -15.842228    4.955182    0.012640
        93
S1: Total Energy = -6337.18792908
 C        -10.487051   -1.014276    0.000093
 C        -11.160141   -2.251025    0.000118
 C        -12.554375   -2.096951    0.000095
 C        -13.014261   -0.778367    0.000051
 S        -11.643193    0.321744    0.000044
 H        -13.239647   -2.938633    0.000101
 C         -9.093350   -0.705283    0.000105
 C         -8.511670    0.564960    0.000052
 S         -7.825157   -1.924424    0.000213
 C         -7.109916    0.591452    0.000085
 H         -9.104096    1.473744   -0.000022
 C         -6.549031   -0.699978    0.000155
 C         -1.276553   -1.056453    0.000224
 C         -0.693035    0.225421    0.000278
 S          0.000000   -2.278909    0.000154
 C          0.693037    0.225420    0.000267
 H         -1.284117    1.134356    0.000319
 C          1.276554   -1.056453    0.000197
 H          1.284119    1.134355    0.000308
 C          6.549032   -0.699980    0.000051
 C          7.109917    0.591450    0.000192
 S          7.825158   -1.924426   -0.000230
 C          8.511671    0.564958    0.000113
 C          9.093351   -0.705286   -0.000101
 H          9.104098    1.473741    0.000222
 C         10.487052   -1.014278   -0.000235
 C         11.160143   -2.251027   -0.000450
 S         11.643194    0.321742   -0.000145
 C         12.554377   -2.096952   -0.000526
 C         13.014262   -0.778368   -0.000374
 H         13.239650   -2.938633   -0.000677
 C        -14.374882   -0.385177   -0.000003
 H        -15.092479   -1.204238    0.000020
 C        -14.950908    0.859077   -0.000088
 S        -14.171190    2.442647   -0.000155
 N        -16.750486    2.388104   -0.000256
 C        -18.152780    2.795763   -0.000351
 H        -18.367327    3.393318    0.888847
 H        -18.747768    1.883165   -0.000244
 C        -16.406675    1.011916   -0.000143
 O        -17.245605    0.118006   -0.000141
 C        -15.728311    3.290078   -0.000274
 C         14.374883   -0.385177   -0.000389
 H         15.092481   -1.204237   -0.000563
 C         14.950907    0.859078   -0.000210
 S         14.171188    2.442647    0.000112
 N         16.750483    2.388108   -0.000037
 C         18.152777    2.795768   -0.000028
 H         18.367243    3.393413   -0.889186
 H         18.747766    1.883171   -0.000282
 C         16.406675    1.011919   -0.000262
 O         17.245606    0.118010   -0.000454
 C         15.728308    3.290080    0.000169
 C        -10.500933   -3.604556    0.000157
 H         -9.868264   -3.751642    0.883787
 H         -9.868181   -3.751656   -0.883411
 C         10.500936   -3.604558   -0.000575
 H          9.868194   -3.751554   -0.884168
 H          9.868257   -3.751749    0.883031
 C         -6.334034    1.880500    0.000026
 H         -5.690488    1.968634   -0.883613
 H         -5.690502    1.968725    0.883666
 C          6.334035    1.880498    0.000433
 H          5.690563    1.968550    0.884134
 H          5.690431    1.968805   -0.883146
 H         18.367361    3.392986    0.889389
 H         11.258507   -4.393251   -0.000688
 H        -11.258503   -4.393249    0.000127
 H        -18.367284    3.393071   -0.889727
 H         -7.016948    2.734326   -0.000019
 H          7.016950    2.734324    0.000500
 C          2.658120   -1.362840    0.000150
 C          3.336480   -2.603110    0.000078
 S          3.821751   -0.028258    0.000198
 C          4.725324   -2.450980    0.000054
 C          5.194046   -1.129618    0.000096
 H          5.397585   -3.302318   -0.000003
 C         -2.658119   -1.362839    0.000210
 C         -3.336479   -2.603109    0.000136
 S         -3.821749   -0.028256    0.000241
 C         -4.725324   -2.450978    0.000108
 C         -5.194045   -1.129616    0.000164
 H         -5.397586   -3.302316    0.000046
 C          2.677412   -3.955171    0.000038
 H          2.044423   -4.099314    0.883752
 H          2.044204   -4.099165   -0.883541
 H          3.433156   -4.745220   -0.000124
 C         -2.677413   -3.955171    0.000076
 H         -2.044388   -4.099231   -0.883626
 H         -2.044241   -4.099248    0.883668
 H         -3.433158   -4.745219    0.000133
 S         15.854576    4.947934    0.000479
 S        -15.854581    4.947932   -0.000411
