        81
S0: Total Energy = -4806.14145496
 C          6.571908    1.698098   -0.189004
 C          7.129638    2.964398   -0.410544
 C          8.536578    2.917611   -0.471933
 C          9.097961    1.657581   -0.307800
 S          7.826293    0.471719   -0.071937
 H          9.148561    3.799645   -0.632293
 C          5.199615    1.284207   -0.050553
 C          4.731004    0.016861    0.255460
 S          3.835056    2.368023   -0.276643
 C          3.324670   -0.112363    0.323512
 H          5.392762   -0.822240    0.445192
 C          2.673842    1.094247    0.065605
 C          1.269725    1.428949    0.051272
 C          0.702945    2.695135    0.029044
 S         -0.000005    0.213182   -0.000573
 C         -0.702919    2.695151   -0.029675
 H          1.292737    3.604865    0.058381
 C         -1.269721    1.428978   -0.052102
 H         -1.292698    3.604895   -0.058827
 C         -2.673844    1.094302   -0.066411
 C         -3.324714   -0.112241   -0.324526
 S         -3.835010    2.368032    0.276174
 C         -4.731039    0.016979   -0.256274
 C         -5.199603    1.284256    0.050097
 H         -5.392826   -0.822080   -0.446089
 C         -6.571873    1.698112    0.188879
 C         -7.129567    2.964365    0.410780
 S         -7.826276    0.471753    0.071792
 C         -8.536493    2.917552    0.472473
 C         -9.097900    1.657547    0.308230
 H         -9.148447    3.799547    0.633161
 C         10.491805    1.377565   -0.329060
 H         11.131628    2.243333   -0.494032
 C         11.175919    0.208887   -0.177536
 S         10.530006   -1.410637    0.107676
 N         13.113908   -1.146730   -0.053162
 C         14.559213   -1.393476   -0.083800
 H         14.897051   -1.802237    0.869936
 H         15.029004   -0.426317   -0.259141
 C         12.640348    0.179788   -0.240930
 O         13.387919    1.125594   -0.425177
 C         12.159080   -2.095776    0.140731
 C         12.324810   -3.460409    0.348436
 C         11.164323   -4.267983    0.529135
 N         10.210227   -4.921594    0.676107
 C         13.570719   -4.146211    0.400359
 N         14.557718   -4.764371    0.453390
 C        -10.491735    1.377510    0.329795
 H        -11.131524    2.243234    0.495127
 C        -11.175879    0.208858    0.178201
 S        -10.530029   -1.410599   -0.107547
 N        -13.113890   -1.146751    0.054075
 C        -14.559182   -1.393524    0.085072
 H        -14.897286   -1.802078   -0.868658
 H        -15.028937   -0.426412    0.260763
 C        -12.640290    0.179730    0.242002
 O        -13.387817    1.125488    0.426677
 C        -12.159109   -2.095742   -0.140308
 C        -12.324894   -3.460327   -0.348285
 C        -11.164458   -4.267862   -0.529492
 N        -10.210405   -4.921445   -0.676861
 C        -13.570820   -4.146113   -0.400017
 N        -14.557842   -4.764248   -0.452911
 C          6.361242    4.250766   -0.564158
 H          5.726322    4.454342    0.305870
 H          5.712494    4.236788   -1.448103
 C         -6.361149    4.250707    0.564502
 H         -5.726414    4.454470   -0.305618
 H         -5.712214    4.236550    1.448307
 C          2.658596   -1.420938    0.659245
 H          2.120438   -1.837785   -0.200980
 H          1.936303   -1.314189    1.476291
 C         -2.658692   -1.420756   -0.660598
 H         -2.120444   -1.837784    0.199483
 H         -1.936489   -1.313849   -1.477702
 H        -14.811643   -2.080962    0.894130
 H         -7.051892    5.091181    0.676195
 H          7.052002    5.091269   -0.675529
 H         14.811918   -2.080729   -0.892939
 H          3.405385   -2.158230    0.967001
 H         -3.405524   -2.157976   -0.968422
        81
T1: Total Energy = -4806.10184881
 C          6.539895   -1.714378    0.000063
 C          7.112110   -3.013144    0.000223
 C          8.505419   -2.976636    0.000300
 C          9.079671   -1.696132    0.000215
 S          7.810865   -0.480250   -0.000003
 H          9.120072   -3.871176    0.000437
 C          5.191290   -1.296402   -0.000050
 C          4.720024    0.033522   -0.000188
 S          3.814425   -2.398591   -0.000057
 C          3.341500    0.190530   -0.000288
 H          5.396134    0.881953   -0.000201
 C          2.651561   -1.056285   -0.000232
 C          1.279558   -1.350162   -0.000293
 C          0.688234   -2.640410   -0.000237
 S          0.000000   -0.122444   -0.000432
 C         -0.688234   -2.640410   -0.000278
 H          1.280768   -3.548443   -0.000153
 C         -1.279557   -1.350162   -0.000376
 H         -1.280768   -3.548442   -0.000223
 C         -2.651561   -1.056285   -0.000417
 C         -3.341500    0.190530   -0.000499
 S         -3.814425   -2.398591   -0.000326
 C         -4.720024    0.033522   -0.000456
 C         -5.191290   -1.296402   -0.000340
 H         -5.396134    0.881953   -0.000493
 C         -6.539894   -1.714378   -0.000216
 C         -7.112109   -3.013144   -0.000112
 S         -7.810864   -0.480250   -0.000133
 C         -8.505419   -2.976636    0.000059
 C         -9.079670   -1.696132    0.000087
 H         -9.120071   -3.871176    0.000172
 C         10.464913   -1.431183    0.000299
 H         11.105539   -2.311450    0.000428
 C         11.157309   -0.244816    0.000258
 S         10.507584    1.394592    0.000060
 N         13.088554    1.120483    0.000348
 C         14.534571    1.360820    0.000559
 H         14.830491    1.913767   -0.892608
 H         15.005108    0.378130    0.000835
 C         12.615968   -0.223736    0.000404
 O         13.371435   -1.185181    0.000546
 C         12.133185    2.085137    0.000152
 C         12.293147    3.469461    0.000007
 C         11.128858    4.289816   -0.000153
 N         10.170008    4.953668   -0.000324
 C         13.537342    4.158148   -0.000055
 N         14.524665    4.778900   -0.000108
 C        -10.464913   -1.431183    0.000270
 H        -11.105539   -2.311450    0.000424
 C        -11.157308   -0.244816    0.000292
 S        -10.507583    1.394592    0.000077
 N        -13.088554    1.120483    0.000450
 C        -14.534570    1.360820    0.000560
 H        -14.830268    1.913910    0.893713
 H        -15.005108    0.378131    0.000560
 C        -12.615967   -0.223736    0.000514
 O        -13.371435   -1.185180    0.000691
 C        -12.133184    2.085137    0.000230
 C        -12.293147    3.469461    0.000135
 C        -11.128859    4.289817   -0.000150
 N        -10.170010    4.953670   -0.000382
 C        -13.537343    4.158146    0.000330
 N        -14.524668    4.778894    0.000479
 C          6.335092   -4.301739    0.000326
 H          5.692342   -4.390302   -0.883622
 H          5.692136   -4.390040    0.884148
 C         -6.335091   -4.301739   -0.000156
 H         -5.692192   -4.390172    0.883695
 H         -5.692285   -4.390168   -0.884075
 C          2.683383    1.542741   -0.000427
 H          2.050774    1.686774    0.883352
 H          2.050878    1.686640   -0.884301
 C         -2.683383    1.542741   -0.000596
 H         -2.050846    1.686655   -0.884445
 H         -2.050806    1.686760    0.883208
 H        -14.830380    1.913976   -0.892514
 H         -7.018909   -5.154984   -0.000123
 H          7.018910   -5.154985    0.000532
 H         14.830159    1.914117    0.893619
 H          3.440094    2.331746   -0.000441
 H         -3.440093    2.331746   -0.000628
        81
S1: Total Energy = -4806.08265302
 C          6.546879   -1.722266   -0.001070
 C          7.114351   -3.015399   -0.001390
 C          8.513841   -2.979384   -0.001419
 C          9.083241   -1.701546   -0.001122
 S          7.813106   -0.488281   -0.000870
 H          9.127715   -3.874343   -0.001612
 C          5.189415   -1.298424   -0.000887
 C          4.720208    0.023113   -0.000717
 S          3.820451   -2.403120   -0.000820
 C          3.332132    0.174162   -0.000521
 H          5.391757    0.874944   -0.000700
 C          2.655830   -1.069181   -0.000514
 C          1.275481   -1.375695   -0.000279
 C          0.692302   -2.659827   -0.000184
 S          0.000001   -0.152696   -0.000026
 C         -0.692302   -2.659826    0.000117
 H          1.284174   -3.568160   -0.000299
 C         -1.275480   -1.375694    0.000225
 H         -1.284175   -3.568159    0.000231
 C         -2.655828   -1.069179    0.000467
 C         -3.332129    0.174165    0.000495
 S         -3.820451   -2.403117    0.000753
 C         -4.720205    0.023117    0.000702
 C         -5.189413   -1.298420    0.000857
 H         -5.391754    0.874949    0.000708
 C         -6.546877   -1.722262    0.001050
 C         -7.114347   -3.015395    0.001381
 S         -7.813106   -0.488278    0.000847
 C         -8.513838   -2.979382    0.001431
 C         -9.083239   -1.701544    0.001136
 H         -9.127711   -3.874342    0.001643
 C         10.471399   -1.428211   -0.000962
 H         11.116433   -2.305145   -0.001238
 C         11.155637   -0.238691   -0.000454
 S         10.497453    1.396065    0.000165
 N         13.077877    1.138396    0.000493
 C         14.522238    1.387980    0.001232
 H         14.814964    1.942940   -0.891771
 H         14.998839    0.408180    0.001775
 C         12.615352   -0.208102   -0.000234
 O         13.377090   -1.165976   -0.000571
 C         12.117179    2.098192    0.000681
 C         12.268802    3.485396    0.001146
 C         11.100496    4.298843    0.001552
 N         10.137642    4.957495    0.001837
 C         13.508202    4.181211    0.001046
 N         14.492607    4.807302    0.000917
 C        -10.471397   -1.428211    0.001007
 H        -11.116431   -2.305146    0.001307
 C        -11.155637   -0.238692    0.000503
 S        -10.497455    1.396065   -0.000154
 N        -13.077879    1.138392   -0.000400
 C        -14.522240    1.387976   -0.001081
 H        -14.814930    1.942934    0.891936
 H        -14.998840    0.408176   -0.001605
 C        -12.615352   -0.208105    0.000331
 O        -13.377089   -1.165980    0.000705
 C        -12.117182    2.098190   -0.000646
 C        -12.268807    3.485394   -0.001144
 C        -11.100502    4.298843   -0.001609
 N        -10.137649    4.957495   -0.001998
 C        -13.508209    4.181206   -0.001037
 N        -14.492617    4.807293   -0.000907
 C          6.340354   -4.305867   -0.001664
 H          5.697544   -4.396103   -0.885607
 H          5.697567   -4.396522    0.882251
 C         -6.340348   -4.305861    0.001660
 H         -5.697505   -4.396073    0.885582
 H         -5.697591   -4.396535   -0.882276
 C          2.671744    1.525094   -0.000348
 H          2.039132    1.668417    0.883735
 H          2.038665    1.668393   -0.884098
 C         -2.671741    1.525096    0.000344
 H         -2.039143    1.668440   -0.883745
 H         -2.038647    1.668373    0.884087
 H        -14.813928    1.943456   -0.894090
 H         -7.025793   -5.157757    0.001905
 H          7.025802   -5.157761   -0.001865
 H         14.813890    1.943458    0.894255
 H          3.426662    2.315680   -0.000551
 H         -3.426658    2.315682    0.000578
