        88
S0: Total Energy = -5357.95768385
 C          8.366235   -1.761600    0.010452
 C          8.721489   -3.117236   -0.012776
 C         10.118758   -3.296588   -0.029429
 C         10.869265   -2.127393   -0.020308
 S          9.796475   -0.738815    0.010759
 H         10.585380   -4.276548   -0.048426
 C          7.074296   -1.127087    0.032576
 C          6.804985    0.231752    0.055880
 S          5.559213   -2.017883    0.030503
 C          5.435484    0.581223    0.079479
 H          7.587297    0.984096    0.061269
 C          4.606509   -0.541464    0.077133
 C         -0.659346    0.287318   -0.040191
 C         -1.025121    1.607102   -0.240613
 S         -2.089974   -0.719502    0.106738
 C         -2.418892    1.812152   -0.278551
 H         -0.304478    2.408203   -0.365294
 C         -3.168957    0.658057   -0.107689
 H         -2.866876    2.786915   -0.438522
 C         -4.606537    0.541190   -0.074413
 C         -5.435570   -0.581440   -0.077261
 S         -5.559098    2.017638   -0.026378
 C         -6.805043   -0.231893   -0.053079
 C         -7.074251    1.126956   -0.028773
 H         -7.587417   -0.984172   -0.058708
 C         -8.366151    1.761538   -0.006147
 C         -8.721324    3.117146    0.019905
 S         -9.796466    0.738862   -0.009597
 C        -10.118590    3.296558    0.036220
 C        -10.869175    2.127442    0.024077
 H        -10.585156    4.276504    0.057250
 C         12.289583   -2.069351   -0.034687
 H         12.789170   -3.036903   -0.054643
 C         13.146263   -1.009391   -0.027845
 S         12.758946    0.714240    0.002904
 N         15.270977    0.036564   -0.034844
 C         16.737275    0.051193   -0.051828
 H         17.103514    0.565886   -0.941683
 H         17.051206   -0.991841   -0.071863
 C         14.597432   -1.214743   -0.046895
 O         15.189961   -2.280586   -0.069884
 C         14.474672    1.138784   -0.008837
 C         14.850096    2.477450    0.008379
 C         13.828769    3.471216    0.035662
 N         12.987605    4.278123    0.058114
 C         16.187433    2.963943    0.002297
 N         17.258435    3.424481   -0.001333
 C        -12.289504    2.069462    0.037518
 H        -12.789044    3.036994    0.059505
 C        -13.146238    1.009568    0.027654
 S        -12.758981   -0.714000   -0.007009
 N        -15.270999   -0.036311    0.031208
 C        -16.737307   -0.050925    0.047376
 H        -17.124310   -0.535647   -0.850472
 H        -17.051213    0.992073    0.069545
 C        -14.597408    1.214937    0.046462
 O        -15.189904    2.280750    0.071615
 C        -14.474725   -1.138498    0.002994
 C        -14.850188   -2.477105   -0.017502
 C        -13.828877   -3.470832   -0.046703
 N        -12.987729   -4.277711   -0.070706
 C        -16.187541   -2.963566   -0.013135
 N        -17.258556   -3.424083   -0.011019
 C          7.763014   -4.279046   -0.020496
 H          7.106110   -4.261975   -0.898097
 H          7.122161   -4.286864    0.868990
 C         -7.762781    4.278875    0.030836
 H         -7.121992    4.289174   -0.858673
 H         -7.105821    4.259288    0.908340
 C          4.980056    2.016475    0.113819
 H          4.302367    2.210755    0.952936
 H          4.452748    2.300058   -0.805269
 C         -4.980194   -2.016690   -0.112632
 H         -4.453226   -2.301061    0.806410
 H         -4.302206   -2.210294   -0.951658
 H        -17.104048   -0.567558    0.935900
 H         -8.315208    5.222382    0.051972
 H          8.315494   -5.222578   -0.038965
 H         17.124747    0.537898    0.844743
 H          5.840074    2.683836    0.218508
 H         -5.840206   -2.683927   -0.218166
 C          0.659310   -0.287675    0.042264
 C          1.025082   -1.607574    0.241892
 S          2.089930    0.719303   -0.103657
 C          2.418850   -1.812613    0.279947
 H          0.304440   -2.408815    0.365697
 C          3.168928   -0.658398    0.109989
 H          2.866803   -2.787502    0.439256
        88
T1: Total Energy = -5357.91793616
 C          8.327296   -1.773809   -0.000517
 C          8.696040   -3.140447   -0.000071
 C         10.081801   -3.314528   -0.000426
 C         10.840191   -2.136836   -0.001085
 S          9.766573   -0.745284   -0.001333
 H         10.552811   -4.292447   -0.000122
 C          7.051953   -1.155634   -0.000459
 C          6.782226    0.224161   -0.000463
 S          5.529681   -2.043081   -0.000459
 C          5.436456    0.580962   -0.000383
 H          7.574013    0.965928   -0.000509
 C          4.576737   -0.548191   -0.000339
 C         -0.647079    0.271391    0.000310
 C         -1.032710    1.628710    0.000670
 S         -2.085260   -0.760038    0.000130
 C         -2.400250    1.828615    0.000818
 H         -0.310984    2.438186    0.000839
 C         -3.170526    0.641033    0.000584
 H         -2.854896    2.813006    0.001162
 C         -4.576716    0.548176    0.000609
 C         -5.436302   -0.580966    0.000607
 S         -5.529688    2.042970    0.000707
 C         -6.782171   -0.224195    0.000630
 C         -7.051900    1.155492    0.000626
 H         -7.573915   -0.966011    0.000630
 C         -8.327338    1.773745    0.000620
 C         -8.696004    3.140318    0.000157
 S         -9.766556    0.745256    0.001353
 C        -10.081835    3.314423    0.000428
 C        -10.840167    2.136785    0.001038
 H        -10.552824    4.292353    0.000096
 C         12.251094   -2.080072   -0.001406
 H         12.754072   -3.045747   -0.001370
 C         13.112274   -1.011746   -0.001738
 S         12.716093    0.707787   -0.001841
 N         15.226567    0.048334   -0.002232
 C         16.692162    0.068742   -0.002649
 H         17.067427    0.571315   -0.895793
 H         17.009633   -0.973523   -0.002905
 C         14.557631   -1.209724   -0.002012
 O         15.160847   -2.273294   -0.002028
 C         14.426880    1.145649   -0.002176
 C         14.794044    2.490089   -0.002323
 C         13.766793    3.476616   -0.002339
 N         12.919194    4.277701   -0.002348
 C         16.127722    2.983669   -0.002370
 N         17.197086    3.449144   -0.002390
 C        -12.251136    2.080007    0.001270
 H        -12.754097    3.045693    0.001206
 C        -13.112273    1.011733    0.001541
 S        -12.716140   -0.707824    0.001658
 N        -15.226632   -0.048263    0.001891
 C        -16.692233   -0.068642    0.002207
 H        -17.067975   -0.570918   -0.890906
 H        -17.009689    0.973627    0.002436
 C        -14.557674    1.209752    0.001718
 O        -15.160821    2.273336    0.001706
 C        -14.426960   -1.145609    0.001882
 C        -14.794166   -2.490012    0.002002
 C        -13.766941   -3.476577    0.002074
 N        -12.919370   -4.277687    0.002134
 C        -16.127864   -2.983557    0.001969
 N        -17.197235   -3.449008    0.001928
 C          7.736697   -4.300201    0.000729
 H          7.087999   -4.294434   -0.883272
 H          7.087262   -4.292650    0.884157
 C         -7.736671    4.300088   -0.000587
 H         -7.087183    4.292552   -0.883975
 H         -7.088030    4.294340    0.883456
 C          4.983984    2.015467   -0.000233
 H          4.379390    2.251313    0.883570
 H          4.379189    2.251457   -0.883859
 C         -4.983812   -2.015471    0.000454
 H         -4.379076   -2.251486    0.884114
 H         -4.379163   -2.251302   -0.883315
 H        -17.067564   -0.571201    0.895329
 H         -8.287611    5.244591   -0.001807
 H          8.287623   -5.244712    0.001913
 H         17.067962    0.571022    0.890438
 H          5.848308    2.684946   -0.000266
 H         -5.848129   -2.684959    0.000416
 C          0.647172   -0.271306    0.000067
 C          1.032802   -1.628646   -0.000287
 S          2.085358    0.760140    0.000208
 C          2.400299   -1.828582   -0.000463
 H          0.311058   -2.438108   -0.000438
 C          3.170644   -0.640961   -0.000258
 H          2.854937   -2.812974   -0.000816
        88
S1: Total Energy = -5357.90123292
 C          8.330218   -1.779218    0.000209
 C          8.693764   -3.141576    0.000343
 C         10.083736   -3.319500    0.000215
 C         10.840649   -2.144452    0.000011
 S          9.768139   -0.752608   -0.000089
 H         10.552326   -4.298491    0.000320
 C          7.049891   -1.153035    0.000251
 C          6.783388    0.220971    0.000503
 S          5.532227   -2.040889   -0.000185
 C          5.430129    0.576370    0.000365
 H          7.573531    0.964230    0.000814
 C          4.579267   -0.550165   -0.000001
 C         -0.649104    0.276570   -0.000180
 C         -1.027364    1.629291   -0.000025
 S         -2.085712   -0.749093   -0.000388
 C         -2.400379    1.832673   -0.000073
 H         -0.304780    2.437929    0.000106
 C         -3.165393    0.649411   -0.000267
 H         -2.853181    2.817732    0.000003
 C         -4.579267    0.550163   -0.000336
 C         -5.430129   -0.576372   -0.000687
 S         -5.532226    2.040887   -0.000097
 C         -6.783387   -0.220973   -0.000768
 C         -7.049890    1.153033   -0.000488
 H         -7.573531   -0.964233   -0.001053
 C         -8.330217    1.779216   -0.000381
 C         -8.693762    3.141574   -0.000475
 S         -9.768139    0.752607   -0.000006
 C        -10.083734    3.319499   -0.000259
 C        -10.840648    2.144453   -0.000019
 H        -10.552323    4.298491   -0.000321
 C         12.254587   -2.084187   -0.000062
 H         12.759616   -3.048695   -0.000116
 C         13.112322   -1.013736   -0.000059
 S         12.712067    0.703998    0.000084
 N         15.222444    0.053256   -0.000079
 C         16.687816    0.078239   -0.000258
 H         17.061783    0.582300   -0.893156
 H         17.008288   -0.963151   -0.000615
 C         14.558705   -1.206846   -0.000128
 O         15.165897   -2.269545   -0.000226
 C         14.420228    1.148878    0.000049
 C         14.783807    2.496255    0.000168
 C         13.754442    3.479636    0.000172
 N         12.904398    4.278606    0.000167
 C         16.115401    2.993453    0.000376
 N         17.184123    3.461314    0.000560
 C        -12.254586    2.084189    0.000183
 H        -12.759614    3.048697    0.000303
 C        -13.112322    1.013738    0.000261
 S        -12.712069   -0.703996    0.000051
 N        -15.222445   -0.053252    0.000568
 C        -16.687817   -0.078234    0.000965
 H        -17.062170   -0.581730   -0.892092
 H        -17.008287    0.963156    0.001386
 C        -14.558704    1.206849    0.000532
 O        -15.165896    2.269548    0.000708
 C        -14.420230   -1.148875    0.000318
 C        -14.783809   -2.496252    0.000230
 C        -13.754445   -3.479633    0.000067
 N        -12.904401   -4.278604   -0.000068
 C        -16.115404   -2.993449    0.000204
 N        -17.184127   -3.461310    0.000164
 C          7.734449   -4.301446    0.000617
 H          7.085484   -4.295659   -0.883355
 H          7.084836   -4.294722    0.884095
 C         -7.734446    4.301443   -0.000794
 H         -7.084876    4.294722   -0.884304
 H         -7.085438    4.295653    0.883146
 C          4.977993    2.010758    0.000567
 H          4.373320    2.246886    0.884430
 H          4.373240    2.247105   -0.883180
 C         -4.977993   -2.010760   -0.000931
 H         -4.373244   -2.247136    0.882811
 H         -4.373317   -2.246862   -0.884799
 H        -17.061649   -0.582309    0.893911
 H         -8.285069    5.246117   -0.001460
 H          8.285073   -5.246119    0.001313
 H         17.062034    0.581750    0.892846
 H          5.842049    2.680397    0.000602
 H         -5.842049   -2.680399   -0.000991
 C          0.649105   -0.276572   -0.000189
 C          1.027365   -1.629293   -0.000328
 S          2.085712    0.749090   -0.000001
 C          2.400379   -1.832676   -0.000276
 H          0.304780   -2.437931   -0.000444
 C          3.165394   -0.649414   -0.000091
 H          2.853182   -2.817735   -0.000333
