       108
S0: Total Energy = -6540.22295021
 C        -12.313556    1.800784    0.083970
 C        -12.757621    3.128187    0.161098
 C        -14.154958    3.209136    0.319236
 C        -14.820308    1.990262    0.370568
 S        -13.661896    0.680221    0.219898
 H        -14.684530    4.153780    0.394708
 C        -10.990745    1.258862   -0.082810
 C        -10.637869   -0.075364   -0.206689
 S         -9.540074    2.249638   -0.147755
 C         -9.255556   -0.328779   -0.357858
 H        -11.369055   -0.877500   -0.198990
 C         -8.502610    0.846406   -0.356506
 C          0.716560    0.078150   -0.751036
 C          1.469409    1.234927   -0.842306
 S          1.772662   -1.320083   -0.632527
 C          2.862281    1.011616   -0.828783
 H          1.027443    2.220998   -0.938213
 C          3.223784   -0.322662   -0.725533
 H          3.589036    1.812627   -0.910851
 C          8.502793   -0.846587   -0.357927
 C          9.255795    0.328548   -0.360153
 S          9.540110   -2.249706   -0.147774
 C         10.638076    0.075170   -0.208594
 C         10.990843   -1.258977   -0.083553
 H         11.369329    0.877252   -0.201560
 C         12.313606   -1.800824    0.083877
 C         12.757665   -3.128188    0.161678
 S         13.661878   -0.680185    0.219792
 C         14.154961   -3.209052    0.320239
 C         14.820275   -1.990145    0.371279
 H         14.684531   -4.153657    0.396215
 C        -16.224757    1.833724    0.521195
 H        -16.785087    2.764382    0.598933
 C        -17.003885    0.717003    0.585599
 S        -16.503690   -0.975726    0.502373
 N        -19.040934   -0.473928    0.785363
 C        -20.494823   -0.590167    0.937009
 H        -20.928424   -1.101966    0.076231
 H        -20.876904    0.428532    0.993203
 C        -18.456799    0.821310    0.744686
 O        -19.116686    1.843347    0.833513
 C        -18.176835   -1.518223    0.674951
 C        -18.459188   -2.879829    0.683106
 C        -17.379513   -3.800641    0.550109
 N        -16.491176   -4.547686    0.440625
 C        -19.752945   -3.457560    0.815023
 N        -20.784352   -3.991039    0.919108
 C         16.224675   -1.833506    0.522261
 H         16.785014   -2.764113    0.600550
 C         17.003738   -0.716728    0.586463
 S         16.503492    0.975943    0.502387
 N         19.040663    0.474381    0.786450
 C         20.494499    0.590750    0.938511
 H         20.928343    1.102261    0.077685
 H         20.876614   -0.427908    0.995194
 C         18.456605   -0.820903    0.746072
 O         19.116514   -1.842873    0.835509
 C         18.176550    1.518591    0.675331
 C         18.458833    2.880214    0.683029
 C         17.379165    3.800918    0.549225
 N         16.490835    4.547875    0.439083
 C         19.752512    3.458064    0.815186
 N         20.783860    3.991625    0.919443
 C        -11.885525    4.353817    0.085075
 H        -11.317222    4.394273   -0.851429
 H        -11.163383    4.393871    0.909192
 C         11.885603   -4.353856    0.085870
 H         11.317372   -4.394539   -0.850666
 H         11.163400   -4.393735    0.909942
 C         -8.712770   -1.725266   -0.513021
 H         -8.098434   -2.022395    0.345704
 H         -8.090548   -1.824807   -1.409636
 C          8.713091    1.724924   -0.516611
 H          8.099499    2.023195    0.342255
 H          8.090148    1.823444   -1.412830
 H         20.740890    1.130621    1.854267
 H         12.499928   -5.256854    0.140973
 H        -12.499836    5.256841    0.139914
 H        -20.741532   -1.129695    1.852881
 H         -9.533336   -2.443733   -0.593983
 H          9.533695    2.443175   -0.599102
 C          4.557352   -0.872282   -0.664081
 C          5.015789   -2.183465   -0.774612
 S          5.902648    0.236770   -0.427682
 C          6.426680   -2.266339   -0.684046
 C          7.083715   -1.061950   -0.502019
 H          6.952336   -3.212048   -0.770521
 C         -4.557163    0.871959   -0.662861
 C         -5.015512    2.183253   -0.772487
 S         -5.902547   -0.237151   -0.427195
 C         -6.426380    2.266184   -0.681716
 C         -7.083521    1.061733   -0.500445
 H         -6.951923    3.212030   -0.767384
 C          4.158337   -3.403774   -0.987513
 H          3.535874   -3.624134   -0.111470
 H          3.485213   -3.287469   -1.844517
 H          4.785983   -4.280310   -1.172288
 C         -4.157999    3.403660   -0.984566
 H         -3.535205    3.623158   -0.108542
 H         -3.485184    3.288055   -1.841910
 H         -4.785611    4.280429   -1.168342
 C         -0.716418   -0.078541   -0.750835
 C         -1.469303   -1.235315   -0.841860
 S         -1.772459    1.319698   -0.632064
 C         -2.862166   -1.011988   -0.827934
 H         -1.027377   -2.221396   -0.937848
 C         -3.223633    0.322299   -0.724616
 H         -3.588943   -1.813009   -0.909713
       108
T1: Total Energy = -6540.18422718
 C         12.313130    1.828539    0.067118
 C         12.798019    3.167479    0.121517
 C         14.184014    3.232820    0.110512
 C         14.856803    1.993639    0.047731
 S         13.675979    0.687596    0.002535
 H         14.732027    4.168991    0.146448
 C         11.005745    1.316767    0.057957
 C         10.631657   -0.049404    0.006576
 S          9.547280    2.312079    0.109718
 C          9.270983   -0.305855    0.008063
 H         11.369615   -0.843545   -0.031100
 C          8.486468    0.883082    0.061398
 C         -0.693553    0.102599    0.091482
 C         -1.461407    1.265854    0.118844
 S         -1.746487   -1.309585    0.068700
 C         -2.842064    1.035513    0.121526
 H         -1.024729    2.258574    0.136678
 C         -3.201561   -0.312734    0.096570
 H         -3.573100    1.836299    0.142922
 C         -8.483373   -0.848238    0.086425
 C         -9.236665    0.329261    0.071625
 S         -9.535703   -2.257917    0.107771
 C        -10.624915    0.073101    0.076167
 C        -10.985858   -1.265797    0.094807
 H        -11.354911    0.876205    0.068278
 C        -12.317443   -1.809989    0.097656
 C        -12.765932   -3.136980    0.158565
 S        -13.673550   -0.693396    0.014532
 C        -14.171827   -3.220309    0.140514
 C        -14.839406   -2.003718    0.065903
 H        -14.705606   -4.164613    0.182165
 C         16.249761    1.830121    0.023578
 H         16.829043    2.751092    0.060767
 C         17.030486    0.690737   -0.041585
 S         16.490906   -0.986515   -0.119299
 N         19.040951   -0.545242   -0.132704
 C         20.498486   -0.686034   -0.161711
 H         20.845863   -1.259772    0.699528
 H         20.900479    0.325921   -0.119724
 C         18.478611    0.767372   -0.056957
 O         19.177037    1.774780   -0.014695
 C         18.154368   -1.569432   -0.173016
 C         18.406515   -2.942492   -0.247458
 C         17.300909   -3.837683   -0.279744
 N         16.389077   -4.565237   -0.305854
 C         19.692750   -3.544183   -0.295008
 N         20.720179   -4.095885   -0.336475
 C        -16.252246   -1.848614    0.034043
 H        -16.818235   -2.778069    0.076901
 C        -17.031723   -0.733146   -0.042536
 S        -16.523239    0.956223   -0.132510
 N        -19.076891    0.456717   -0.147941
 C        -20.538481    0.573959   -0.177652
 H        -20.892435    1.151219    0.678191
 H        -20.926150   -0.442765   -0.124207
 C        -18.494031   -0.836402   -0.061350
 O        -19.160218   -1.856809   -0.012448
 C        -18.204337    1.498871   -0.195266
 C        -18.482899    2.858212   -0.282488
 C        -17.392954    3.775953   -0.318448
 N        -16.495575    4.519610   -0.347302
 C        -19.781963    3.436157   -0.342171
 N        -20.817364    3.969409   -0.394247
 C         11.928872    4.394004    0.185006
 H         11.289013    4.394441    1.075557
 H         11.272038    4.473830   -0.689452
 C        -11.889914   -4.359367    0.238272
 H        -11.241167   -4.340765    1.121784
 H        -11.243591   -4.457527   -0.641965
 C          8.713538   -1.701734   -0.042956
 H          8.083883   -1.854844   -0.927443
 H          8.100674   -1.926307    0.838095
 C         -8.685316    1.730280    0.053335
 H         -8.060464    1.911986   -0.829132
 H         -8.071756    1.939625    0.937701
 H        -20.864784    1.046940   -1.105333
 H        -12.506033   -5.260773    0.298111
 H         12.548518    5.294364    0.219409
 H         20.818279   -1.174964   -1.083730
 H          9.525575   -2.432741   -0.080133
 H         -9.501443    2.457790    0.036987
 C         -4.527459   -0.859184    0.091396
 C         -4.976925   -2.184266    0.087477
 S         -5.892935    0.255252    0.090459
 C         -6.385119   -2.270618    0.085530
 C         -7.060055   -1.057844    0.086949
 H         -6.899774   -3.226003    0.082387
 C          4.549093    0.895812    0.089482
 C          5.024126    2.233705    0.131293
 S          5.912812   -0.238917    0.041863
 C          6.410225    2.309221    0.125247
 C          7.097435    1.072817    0.078315
 H          6.936910    3.257065    0.153546
 C         -4.103834   -3.410720    0.086023
 H         -3.461689   -3.454553   -0.801868
 H         -3.449246   -3.447893    0.964970
 H         -4.720142   -4.314013    0.093415
 C          4.151767    3.458482    0.178123
 H          3.498179    3.525774   -0.699607
 H          3.509213    3.465979    1.066504
 H          4.768110    4.361135    0.204651
 C          0.722759   -0.034522    0.081922
 C          1.490413   -1.203386    0.046790
 S          1.775560    1.378160    0.115998
 C          2.864242   -0.982016    0.046098
 H          1.048054   -2.193456    0.021744
 C          3.236715    0.375800    0.081604
 H          3.592857   -1.784624    0.020940
       108
S1: Total Energy = -6540.17063303
 C         12.310336    1.824561    0.046884
 C         12.770335    3.153992    0.075213
 C         14.171259    3.232348    0.065468
 C         14.841614    2.007872    0.029135
 S         13.668784    0.698007    0.007345
 H         14.708449    4.175353    0.084095
 C         10.984499    1.288919    0.045714
 C         10.619714   -0.057161    0.029027
 S          9.534324    2.283526    0.063490
 C          9.238479   -0.312190    0.030195
 H         11.351594   -0.857999    0.016865
 C          8.477018    0.868369    0.047736
 C         -0.703765    0.064672    0.058292
 C         -1.478281    1.234278    0.056453
 S         -1.755861   -1.351396    0.060310
 C         -2.848968    1.006194    0.056221
 H         -1.039935    2.226287    0.055114
 C         -3.213323   -0.353237    0.058274
 H         -3.581883    1.805137    0.055154
 C         -8.477016   -0.868361    0.047771
 C         -9.238480    0.312198    0.030297
 S         -9.534319   -2.283521    0.063444
 C        -10.619715    0.057165    0.029113
 C        -10.984496   -1.288917    0.045722
 H        -11.351596    0.858002    0.016999
 C        -12.310332   -1.824563    0.046852
 C        -12.770327   -3.153996    0.075113
 S        -13.668783   -0.698011    0.007354
 C        -14.171251   -3.232357    0.065347
 C        -14.841609   -2.007881    0.029063
 H        -14.708437   -4.175364    0.083923
 C         16.247114    1.844735    0.010972
 H         16.820536    2.770114    0.031486
 C         17.025542    0.715835   -0.029661
 S         16.498311   -0.968820   -0.075592
 N         19.048906   -0.505466   -0.090057
 C         20.507929   -0.638686   -0.110843
 H         20.854424   -1.194072    0.762600
 H         20.904816    0.375768   -0.086508
 C         18.480239    0.801080   -0.042460
 O         19.167293    1.814318   -0.018025
 C         18.167837   -1.538047   -0.112681
 C         18.431365   -2.908469   -0.158815
 C         17.332698   -3.813303   -0.175732
 N         16.426735   -4.548278   -0.189329
 C         19.722333   -3.501881   -0.191507
 N         20.753465   -4.047148   -0.219730
 C        -16.247109   -1.844749    0.010887
 H        -16.820528   -2.770131    0.031342
 C        -17.025541   -0.715848   -0.029697
 S        -16.498315    0.968811   -0.075523
 N        -19.048908    0.505448   -0.090054
 C        -20.507932    0.638665   -0.110857
 H        -20.854443    1.193998    0.762613
 H        -20.904816   -0.375792   -0.086589
 C        -18.480237   -0.801098   -0.042525
 O        -19.167288   -1.814340   -0.018157
 C        -18.167842    1.538033   -0.112606
 C        -18.431376    2.908457   -0.158664
 C        -17.332711    3.813296   -0.175512
 N        -16.426751    4.548275   -0.189062
 C        -19.722345    3.501865   -0.191335
 N        -20.753482    4.047126   -0.219535
 C         11.897367    4.380213    0.112905
 H         11.253528    4.397051    1.000435
 H         11.244970    4.445281   -0.766144
 C        -11.897356   -4.380217    0.112758
 H        -11.253515   -4.397086    1.000286
 H        -11.244960   -4.445248   -0.766295
 C          8.685329   -1.711518    0.013951
 H          8.060982   -1.892912   -0.869179
 H          8.069640   -1.916920    0.897942
 C         -8.685334    1.711528    0.014136
 H         -8.060999    1.892980   -0.868990
 H         -8.069635    1.916875    0.898133
 H        -20.833470    1.143211   -1.022292
 H        -12.515173   -5.282282    0.134099
 H         12.515188    5.282276    0.134280
 H         20.833482   -1.143179   -1.022302
 H          9.499849   -2.440636    0.000168
 H         -9.499856    2.440644    0.000410
 C         -4.528584   -0.884135    0.058341
 C         -4.990519   -2.216542    0.066124
 S         -5.895343    0.238965    0.047197
 C         -6.388272   -2.296565    0.063554
 C         -7.065780   -1.072557    0.053285
 H         -6.909654   -3.247798    0.068385
 C          4.528585    0.884149    0.058322
 C          4.990522    2.216556    0.066143
 S          5.895343   -0.238952    0.047132
 C          6.388276    2.296577    0.063569
 C          7.065782    1.072568    0.053259
 H          6.909659    3.247808    0.068425
 C         -4.118222   -3.441799    0.076199
 H         -3.469492   -3.487035   -0.806814
 H         -3.470461   -3.473238    0.960497
 H         -4.734045   -4.345071    0.082796
 C          4.118227    3.441814    0.076259
 H          3.469488    3.487073   -0.806745
 H          3.470477    3.473231    0.960566
 H          4.734052    4.345085    0.082872
 C          0.703766   -0.064656    0.058280
 C          1.478282   -1.234261    0.056386
 S          1.755862    1.351412    0.060332
 C          2.848968   -1.006178    0.056145
 H          1.039936   -2.226270    0.055016
 C          3.213324    0.353252    0.058247
 H          3.581883   -1.805121    0.055040
