       116
S0: Total Energy = -7141.43814163
 C          0.451688   -1.258841   -0.525621
 C          1.348015   -0.175707   -0.343161
 C          2.758073   -0.145826   -0.591777
 C          3.362510    1.046165   -0.283210
 S          2.194465    2.217513    0.356873
 C          0.877308    1.061039    0.188757
 C         -0.450924    1.288415    0.565228
 C         -1.347262    0.205262    0.382863
 C         -2.757296    0.175033    0.632261
 C         -3.361077   -1.017601    0.325382
 S         -2.193280   -2.188644   -0.315393
 C         -0.876455   -1.031615   -0.148734
 H          3.304101   -0.989056   -0.996592
 H         -3.303659    1.018024    1.037120
 C          4.778764    1.347675   -0.369329
 C          5.433391    2.556434   -0.568934
 C          6.841951    2.358208   -0.579170
 S          8.197057    3.428325   -0.804720
 C          9.340533    2.071264   -0.659522
 C          8.668722    0.874485   -0.450838
 C          7.270597    1.044162   -0.404051
 S          5.907351   -0.016520   -0.191175
 H          9.173793   -0.079113   -0.349953
 C         -4.777035   -1.320798    0.413587
 C         -5.428991   -2.528248    0.628185
 C         -6.838057   -2.332992    0.634889
 S         -8.190792   -3.402945    0.875191
 C         -9.336976   -2.050567    0.711341
 C         -8.668200   -0.855204    0.486451
 C         -7.269480   -1.022340    0.442183
 S         -5.908259    0.038495    0.216948
 H         -9.175879    0.095661    0.373551
 C         10.770392    2.253812   -0.724544
 C         11.523149    3.360219   -1.148974
 C         12.900757    3.098592   -1.072962
 C         13.252087    1.834045   -0.600597
 S         11.797445    0.923357   -0.219363
 H         13.654312    3.822552   -1.367684
 C        -10.766543   -2.236354    0.776662
 C        -11.516499   -3.329889    1.237335
 C        -12.894751   -3.075389    1.149376
 C        -13.248889   -1.829754    0.631050
 S        -11.796263   -0.929037    0.219818
 H        -13.646761   -3.790464    1.468629
 C         14.602660    1.418529   -0.469362
 H         15.316981    2.186897   -0.771029
 C         15.197168    0.260102   -0.044253
 C         16.675242    0.134985   -0.026473
 O         17.492878    0.980993   -0.362586
 C         16.972085   -1.239632    0.486952
 C         18.179167   -1.886137    0.707547
 C         18.196917   -3.192181    1.201331
 C         16.996294   -3.848981    1.473831
 C         15.780283   -3.199181    1.252033
 C         15.761184   -1.901743    0.761300
 C         14.608766   -0.997291    0.442417
 O         13.421877   -1.278778    0.572979
 F         19.343978   -1.269622    0.451276
 H         19.149348   -3.683688    1.368436
 H         16.992909   -4.863392    1.858031
 F         14.636255   -3.848657    1.520642
 C        -14.600573   -1.423519    0.482921
 H        -15.312723   -2.180716    0.816362
 C        -15.198162   -0.285615    0.009595
 C        -16.676633   -0.165193   -0.012601
 O        -17.491893   -0.997485    0.361384
 C        -16.977359    1.184306   -0.586718
 C        -18.186244    1.817485   -0.834485
 C        -18.207733    3.099626   -1.387233
 C        -17.009022    3.745836   -1.691581
 C        -15.791246    3.109439   -1.442372
 C        -15.768380    1.835978   -0.892615
 C        -14.613269    0.950228   -0.533479
 O        -13.427214    1.229016   -0.677027
 F        -19.349230    1.210845   -0.548222
 H        -19.161537    3.580971   -1.574849
 H        -17.008489    4.741650   -2.121696
 F        -14.649084    3.748080   -1.742767
 C          0.874278   -2.557211   -1.078547
 C          0.711531   -3.807729   -0.533496
 C          1.200936   -4.861829   -1.360689
 C          1.735255   -4.432748   -2.546831
 S          1.637988   -2.690008   -2.659187
 H          0.272439   -3.967302    0.445439
 H          1.163852   -5.909881   -1.080891
 C         -0.873418    2.586863    1.118062
 C         -0.710266    3.837311    0.572973
 C         -1.199589    4.891578    1.400003
 C         -1.734236    4.462691    2.586068
 S         -1.637399    2.719934    2.698545
 H         -0.270926    3.996712   -0.405880
 H         -1.162214    5.939602    1.120144
 C          4.799579    3.905531   -0.779202
 H          3.810792    3.826298   -1.236486
 H          4.687822    4.449730    0.167241
 C         -4.792385   -3.872974    0.856841
 H         -3.799710   -3.785134    1.303881
 H         -5.411873   -4.475470    1.530363
 C         10.979659    4.673462   -1.648225
 H         10.470017    5.233923   -0.855161
 H         11.794945    5.300446   -2.020208
 C        -10.969645   -4.622759    1.783926
 H        -11.782779   -5.235612    2.183223
 H        -10.463514   -5.212869    1.010336
 C          2.338339   -5.250810   -3.649842
 H          3.386474   -4.983857   -3.830508
 H          2.301683   -6.311476   -3.383303
 C         -2.337354    5.280961    3.688907
 H         -2.300370    6.341604    3.422324
 H         -3.385599    5.014287    3.869355
 H         -1.798959    5.152094    4.635483
 H          1.799700   -5.122033   -4.596291
 H          5.425083    4.519386   -1.436640
 H         10.263015    4.536345   -2.465642
 H         -4.688706   -4.433711   -0.080834
 H        -10.249031   -4.454076    2.591817
       116
T1: Total Energy = -7141.39350631
 C          0.563908   -1.321438    0.063746
 C          1.412057   -0.174368   -0.033499
 C          2.821008   -0.135973   -0.005007
 C          3.378832    1.147362   -0.078460
 S          2.093981    2.375315   -0.178829
 C          0.838383    1.137256   -0.109490
 C         -0.528242    1.386585   -0.075896
 C         -1.376188    0.240529    0.024027
 C         -2.793473    0.203625   -0.003684
 C         -3.340492   -1.065918    0.060694
 S         -2.067698   -2.297142    0.156997
 C         -0.807598   -1.067784    0.098895
 H          3.430631   -1.025216    0.093683
 H         -3.400145    1.095944   -0.096163
 C          4.756336    1.453235   -0.079711
 C          5.428423    2.712414   -0.108196
 C          6.805321    2.538476   -0.092878
 S          8.160867    3.656593   -0.110055
 C          9.328053    2.295935   -0.063880
 C          8.638756    1.048489   -0.036909
 C          7.267678    1.197416   -0.053317
 S          5.920736    0.088639   -0.038976
 H          9.157691    0.098361   -0.006418
 C         -4.740350   -1.394345    0.075455
 C         -5.382315   -2.632655   -0.018040
 C         -6.787614   -2.466055    0.031549
 S         -8.128167   -3.578428   -0.030611
 C         -9.293971   -2.239589    0.110775
 C         -8.638667   -1.015788    0.202437
 C         -7.240600   -1.151369    0.157311
 S         -5.899114   -0.047254    0.233328
 H         -9.159035   -0.070641    0.304180
 C         10.718353    2.469514   -0.056269
 C         11.513071    3.657393   -0.079870
 C         12.866324    3.372682   -0.060337
 C         13.215496    1.998858   -0.021743
 S         11.752307    1.019245   -0.009929
 H         13.632855    4.141257   -0.073286
 C        -10.718545   -2.449868    0.103903
 C        -11.459594   -3.643138    0.149673
 C        -12.839454   -3.387324    0.136479
 C        -13.206172   -2.042291    0.077062
 S        -11.763582   -1.039515    0.031186
 H        -13.584456   -4.176218    0.174288
 C         14.548050    1.556475    0.001101
 H         15.275606    2.368941   -0.013783
 C         15.133487    0.298136    0.037927
 C         16.602010    0.162738    0.051401
 O         17.433393    1.065745    0.035098
 C         16.892702   -1.308671    0.089213
 C         18.091835   -2.002067    0.112609
 C         18.098025   -3.399489    0.146517
 C         16.891381   -4.097812    0.156740
 C         15.681410   -3.397935    0.132955
 C         15.675438   -2.012603    0.099340
 C         14.533829   -1.035505    0.068188
 O         13.341522   -1.341510    0.069405
 F         19.266176   -1.347030    0.102881
 H         19.046268   -3.926069    0.164454
 H         16.876122   -5.182211    0.182812
 F         14.530104   -4.093338    0.143028
 C        -14.561535   -1.622539    0.053714
 H        -15.267111   -2.454684    0.087338
 C        -15.168649   -0.395832   -0.004341
 C        -16.648327   -0.288104   -0.014728
 O        -17.456333   -1.206088    0.026654
 C        -16.960253    1.174300   -0.085705
 C        -18.174445    1.843529   -0.123367
 C        -18.206666    3.238024   -0.189249
 C        -17.013331    3.960578   -0.217352
 C        -15.790080    3.287921   -0.179951
 C        -15.756542    1.902583   -0.114735
 C        -14.594205    0.957129   -0.066380
 O        -13.410188    1.278557   -0.078899
 F        -19.332378    1.164824   -0.097556
 H        -19.164613    3.746079   -0.217971
 H        -17.021174    5.044089   -0.268225
 F        -14.653272    4.001833   -0.207916
 C          1.090156   -2.691095    0.126779
 C          0.777939   -3.681003    1.029607
 C          1.435128   -4.918998    0.772802
 C          2.249425   -4.895948   -0.329417
 S          2.215043   -3.316133   -1.076850
 H          0.116817   -3.517259    1.873670
 H          1.314456   -5.801832    1.392403
 C         -1.058916    2.757475   -0.145513
 C         -0.796363    3.723935   -1.086603
 C         -1.443069    4.967926   -0.825834
 C         -2.199485    4.970248    0.316428
 S         -2.121351    3.408131    1.098966
 H         -0.175175    3.540983   -1.956843
 H         -1.356036    5.836009   -1.471425
 C          4.758010    4.057807   -0.145357
 H          4.150097    4.181687   -1.048852
 H          4.100357    4.205693    0.718455
 C         -4.721841   -3.977762   -0.163890
 H         -4.180175   -4.265492    0.744984
 H         -5.469574   -4.752018   -0.358678
 C         10.980675    5.063661   -0.121114
 H         10.356797    5.289563    0.751932
 H         11.807336    5.779342   -0.133337
 C        -10.902640   -5.040901    0.216372
 H        -11.716200   -5.764680    0.317659
 H        -10.340606   -5.301750   -0.688443
 C          3.087514   -6.004032   -0.893573
 H          4.152699   -5.744266   -0.905893
 H          2.966274   -6.903720   -0.282947
 C         -3.010861    6.090262    0.896364
 H         -2.919557    6.976837    0.261679
 H         -4.074189    5.831387    0.965045
 H         -2.673479    6.360196    1.904144
 H          2.798641   -6.251881   -1.921886
 H          5.502836    4.858413   -0.135731
 H         10.370953    5.243072   -1.014684
 H         -4.007490   -3.992976   -0.993572
 H        -10.229798   -5.174166    1.071153
       116
S1: Total Energy = -7141.37845776
 C          0.541810   -1.357668    0.215973
 C          1.394587   -0.207530    0.093314
 C          2.799095   -0.169005    0.146060
 C          3.356607    1.109662    0.051529
 S          2.083215    2.332735   -0.096262
 C          0.821566    1.101203   -0.025576
 C         -0.544257    1.354200   -0.013529
 C         -1.397004    0.203823    0.106961
 C         -2.801316    0.165016    0.052684
 C         -3.359094   -1.113325    0.151986
 S         -2.085678   -2.335816    0.304392
 C         -0.823937   -1.104637    0.228837
 H          3.407519   -1.053848    0.282839
 H         -3.409477    1.049951   -0.084559
 C          4.743348    1.422223    0.056956
 C          5.399923    2.671076    0.065933
 C          6.793095    2.497841    0.073575
 S          8.143391    3.608652    0.093142
 C          9.305197    2.253806    0.094311
 C          8.637448    1.023439    0.081717
 C          7.247062    1.168980    0.070398
 S          5.905664    0.062319    0.052915
 H          9.154924    0.071695    0.085820
 C         -4.745692   -1.425841    0.143167
 C         -5.403260   -2.673856    0.180669
 C         -6.796075   -2.500710    0.150730
 S         -8.147240   -3.610569    0.171539
 C         -9.307860   -2.256648    0.097683
 C         -8.638992   -1.027287    0.060270
 C         -7.249022   -1.172856    0.090532
 S         -5.907242   -0.066754    0.075201
 H         -9.155451   -0.076102    0.014494
 C         10.720878    2.450714    0.096640
 C         11.480446    3.637456    0.168284
 C         12.853190    3.371712    0.146964
 C         13.214285    2.019970    0.057890
 S         11.761013    1.027690   -0.002613
 H         13.605060    4.153319    0.196715
 C        -10.723453   -2.452671    0.078909
 C        -11.484990   -3.639259    0.130718
 C        -12.857017   -3.372354    0.088640
 C        -13.215814   -2.019672    0.004333
 S        -11.761160   -1.027968   -0.023563
 H        -13.610051   -4.153833    0.119006
 C         14.560160    1.589684    0.022667
 H         15.274691    2.412749    0.075331
 C         15.160420    0.351193   -0.066424
 C         16.633234    0.235550   -0.081911
 O         17.451840    1.146996   -0.019572
 C         16.941048   -1.227709   -0.190091
 C         18.149744   -1.903266   -0.245879
 C         18.174514   -3.297013   -0.348662
 C         16.977319   -4.010206   -0.395328
 C         15.757930   -3.329079   -0.338883
 C         15.732729   -1.946869   -0.236773
 C         14.577762   -0.990069   -0.160355
 O         13.389972   -1.309190   -0.176700
 F         19.314818   -1.233876   -0.202403
 H         19.129713   -3.809407   -0.391261
 H         16.976974   -5.092071   -0.475220
 F         14.616393   -4.038298   -0.385720
 C        -14.560631   -1.587784   -0.047643
 H        -15.276655   -2.410554   -0.014200
 C        -15.158255   -0.347641   -0.132146
 C        -16.630548   -0.229835   -0.167669
 O        -17.451051   -1.140909   -0.129397
 C        -16.935092    1.235195   -0.260578
 C        -18.141997    1.913273   -0.323911
 C        -18.163505    3.308367   -0.407562
 C        -16.964877    4.020420   -0.427418
 C        -15.747285    3.336750   -0.363417
 C        -15.725385    1.953225   -0.280347
 C        -14.572824    0.993928   -0.200558
 O        -13.384576    1.311756   -0.196156
 F        -19.308456    1.245109   -0.306040
 H        -19.117364    3.822704   -0.456333
 H        -16.962035    5.103305   -0.492004
 F        -14.604191    4.044737   -0.384032
 C          1.070672   -2.720937    0.332174
 C          0.728912   -3.686798    1.251964
 C          1.396912   -4.928201    1.053045
 C          2.249043   -4.933048   -0.021289
 S          2.238954   -3.375283   -0.812987
 H          0.041364   -3.500746    2.069793
 H          1.257083   -5.793759    1.692336
 C         -1.072885    2.717581   -0.128132
 C         -0.728711    3.685500   -1.044935
 C         -1.397074    4.926496   -0.844992
 C         -2.251942    4.929073    0.227195
 S         -2.244134    3.369563    1.015445
 H         -0.039250    3.501151   -1.861528
 H         -1.255578    5.793414   -1.482066
 C          4.734426    4.019574    0.073760
 H          4.159853    4.192785   -0.843824
 H          4.046515    4.127508    0.919667
 C         -4.739059   -4.021701    0.240622
 H         -4.152915   -4.143941    1.158966
 H         -5.486240   -4.819761    0.218156
 C         10.935744    5.038040    0.262958
 H         10.296434    5.171145    1.143685
 H         11.756944    5.756407    0.337993
 C        -10.942936   -5.041059    0.222205
 H        -11.765735   -5.760664    0.256936
 H        -10.316445   -5.296032   -0.640971
 C          3.106347   -6.054696   -0.526024
 H          4.169794   -5.788103   -0.522494
 H          2.975710   -6.933140    0.112861
 C         -3.110462    6.049675    0.732161
 H         -2.977813    6.929634    0.095789
 H         -4.173944    5.783294    0.724902
 H         -2.850043    6.332095    1.759150
 H          2.843020   -6.339667   -1.551564
 H          5.480090    4.815777    0.149813
 H         10.340665    5.307333   -0.618043
 H         -4.062097   -4.178286   -0.606703
 H        -10.335554   -5.188220    1.123201
