       118
S0: Total Energy = -6630.56488341
 C        -15.296888    0.288718   -0.060560
 C        -15.250081    1.680399   -0.089671
 S        -13.672199   -0.374231   -0.011332
 C        -13.952299    2.208157   -0.074012
 H        -16.148317    2.288025   -0.122074
 C        -12.960485    1.230868   -0.032270
 H        -13.723241    3.264365   -0.092742
 C        -11.526497    1.454674   -0.010233
 C        -10.579779    0.439362    0.032761
 C        -10.926085    2.758237   -0.030774
 C         -9.182627    0.642892    0.050446
 C         -9.514525    2.962935   -0.012751
 C         -8.565021    1.886517    0.026841
 F        -10.970621   -0.847675    0.060042
 F         -8.440408   -0.481633    0.092082
 N        -11.521681    3.968046   -0.076467
 N         -9.285912    4.292522   -0.047871
 N        -10.501730    4.814542   -0.088195
 C        -10.711855    6.256054   -0.070737
 H         -9.848175    6.729703   -0.535826
 H        -11.620177    6.475888   -0.631015
 H        -10.817668    6.603455    0.960740
 C         -7.129237    2.084743    0.040781
 C         -6.448293    3.293036    0.025038
 S         -5.979327    0.748148    0.081032
 C         -5.045422    3.157094    0.038240
 H         -6.961072    4.244781   -0.000099
 C         -4.613438    1.842388    0.063341
 H         -4.367271    4.003421    0.018982
 C         -3.258447    1.343523    0.075369
 C         -2.827121    0.047919   -0.045694
 S         -1.904100    2.470698    0.264846
 C         -1.404367   -0.104080    0.004897
 H         -3.503973   -0.785143   -0.191912
 C         -0.741936    1.150065    0.158654
 C         -0.649027   -1.296797   -0.133286
 C          0.648959    1.295065    0.172205
 C          0.741886   -1.151805   -0.119693
 C         -1.275015   -2.620895   -0.285869
 C          1.404306    0.102393    0.033694
 C          1.274938    2.619160    0.324918
 S          1.904124   -2.472391   -0.226023
 C         -1.055399   -3.558096   -1.266388
 S         -2.421681   -3.248480    0.893417
 C          2.827094   -0.049508    0.083904
 C          1.055544    3.556116    1.305719
 S          2.421231    3.247075   -0.854542
 C          3.258401   -1.345115   -0.036971
 C         -1.801916   -4.760244   -1.087602
 C         -2.593322   -4.759899    0.030567
 H          3.503992    0.783467    0.230373
 C          1.801943    4.758348    1.127001
 C          2.593028    4.758305    0.008603
 C          4.613498   -1.843790   -0.025472
 C         -3.506837   -5.840236    0.528273
 C          3.506309    5.838823   -0.489142
 C          5.045824   -3.158071    0.011871
 S          5.978984   -0.749562   -0.061423
 H         -4.547194   -5.499312    0.589989
 H         -3.472078   -6.694478   -0.154695
 H         -3.218072   -6.193379    1.525505
 H          3.217097    6.192291   -1.486129
 H          3.471833    6.692840    0.194123
 H          4.546643    5.497939   -0.551437
 C          6.448797   -3.293581    0.020532
 H          4.367866   -4.004170    0.043766
 C          7.129376   -2.085396   -0.011410
 H          6.961922   -4.244884    0.054019
 C          8.565177   -1.886753   -0.006441
 C          9.182354   -0.643419   -0.048701
 C          9.515126   -2.962406    0.042071
 C         10.579533   -0.439446   -0.040819
 F          8.439680    0.480371   -0.100765
 C         10.926717   -2.757257    0.050431
 N          9.286999   -4.291475    0.095215
 C         11.526705   -1.453959    0.010084
 F         10.969908    0.847206   -0.086627
 N         11.522817   -3.966291    0.108459
 N         10.503122   -4.812742    0.136056
 C         12.960737   -1.229614    0.021337
 C         10.713369   -6.254339    0.135769
 C         13.952997   -2.205965    0.073124
 S         13.671945    0.375055   -0.028902
 H         11.625837   -6.466757    0.692138
 H          9.853244   -6.722011    0.613338
 H         10.811578   -6.615111   -0.891861
 C         15.250721   -1.677818    0.073321
 H         13.724287   -3.261782    0.109714
 C         15.297037   -0.286782    0.021533
 H         16.149289   -2.284669    0.110527
 H          0.394260    3.379479    2.147208
 H          1.759311    5.598198    1.813263
 H         -0.393888   -3.381692   -2.107746
 H         -1.759144   -5.600247   -1.773666
 C        -16.510537   -0.456162   -0.071907
 C        -16.749483   -1.804588   -0.049602
 H        -17.412343    0.152396   -0.104887
 C        -18.168881   -2.254687   -0.073497
 C        -15.721550   -2.789285   -0.005325
 O        -19.126446   -1.503134   -0.108993
 O        -18.263742   -3.595436   -0.051422
 N        -14.876134   -3.590994    0.031394
 C        -19.600802   -4.129949   -0.071805
 H        -20.121063   -3.818429   -0.980784
 H        -19.478998   -5.212321   -0.050372
 H        -20.160422   -3.787655    0.802053
 C         16.510590    0.458331    0.013948
 C         16.749164    1.806183   -0.033093
 H         17.412663   -0.149498    0.052898
 C         18.168523    2.256902   -0.023620
 C         15.720849    2.789813   -0.090533
 O         19.126471    1.506332    0.021252
 O         18.262863    3.597059   -0.070441
 N         14.875245    3.590737   -0.138296
 C         19.599821    4.132163   -0.065607
 H         20.155699    3.774199   -0.935556
 H         19.477597    5.213941   -0.106126
 H         20.124157    3.837292    0.846571
       118
T1: Total Energy = -6630.51781718
 C        -15.262093    0.301252   -0.108606
 C        -15.196955    1.708707   -0.051254
 S        -13.638266   -0.380446   -0.101165
 C        -13.912997    2.220990   -0.003437
 H        -16.093301    2.320118   -0.045954
 C        -12.902426    1.231113   -0.021722
 H        -13.676667    3.274740    0.043478
 C        -11.503080    1.449892    0.015481
 C        -10.532352    0.413400   -0.006460
 C        -10.888754    2.758794    0.082100
 C         -9.164423    0.610684    0.026174
 C         -9.478590    2.962313    0.116533
 C         -8.522072    1.877291    0.087601
 F        -10.945361   -0.869642   -0.063932
 F         -8.403571   -0.501999   -0.003259
 N        -11.484244    3.964260    0.114209
 N         -9.248646    4.285287    0.168751
 N        -10.468190    4.817656    0.157851
 C        -10.676277    6.251687    0.282197
 H         -9.860399    6.762855   -0.228926
 H        -11.630931    6.497346   -0.182051
 H        -10.691089    6.541202    1.337274
 C         -7.121472    2.054920    0.117796
 C         -6.423139    3.290824    0.181331
 S         -5.959617    0.717835    0.080881
 C         -5.047232    3.162735    0.196842
 H         -6.949285    4.234647    0.212238
 C         -4.588274    1.831416    0.146128
 H         -4.370995    4.009954    0.241492
 C         -3.257265    1.364295    0.143703
 C         -2.815781    0.041848    0.065166
 S         -1.888574    2.489772    0.245377
 C         -1.411602   -0.107708    0.090131
 H         -3.501068   -0.790924   -0.031911
 C         -0.735362    1.154938    0.168450
 C         -0.658103   -1.318415   -0.012774
 C          0.647223    1.293587    0.131589
 C          0.729238   -1.175705   -0.049425
 C         -1.292491   -2.640980   -0.081310
 C          1.399821    0.084206    0.026437
 C          1.285955    2.617205    0.205202
 S          1.888617   -2.502443   -0.116736
 C         -1.058503   -3.648779   -0.988305
 S         -2.468492   -3.177588    1.115424
 C          2.812579   -0.064449    0.047316
 C          1.098141    3.599250    1.148243
 S          2.402878    3.182662   -1.032625
 C          3.246175   -1.372445   -0.022552
 C         -1.815429   -4.829775   -0.739876
 C         -2.629074   -4.745498    0.360069
 H          3.493520    0.773367    0.134473
 C          1.844804    4.787062    0.894040
 C          2.604252    4.730876   -0.244930
 C          4.596959   -1.861906   -0.023289
 C         -3.557102   -5.783836    0.916131
 C          3.506819    5.782465   -0.818215
 C          5.036446   -3.178217   -0.006442
 S          5.960688   -0.761480   -0.046803
 H         -4.597090   -5.436766    0.927646
 H         -3.509337   -6.687230    0.300779
 H         -3.292242   -6.060229    1.943648
 H          3.192415    6.087142   -1.823556
 H          3.491791    6.669095   -0.177237
 H          4.544235    5.434852   -0.890372
 C          6.436230   -3.307992   -0.006610
 H          4.362034   -4.027554    0.012602
 C          7.113759   -2.094320   -0.024786
 H          6.954168   -4.257095    0.009192
 C          8.547189   -1.893325   -0.025853
 C          9.161160   -0.646558   -0.052672
 C          9.500189   -2.967451   -0.000152
 C         10.556636   -0.438665   -0.051063
 F          8.413802    0.474487   -0.082127
 C         10.910997   -2.757778    0.001867
 N          9.276376   -4.297506    0.034244
 C         11.507317   -1.452060   -0.022543
 F         10.943560    0.849463   -0.079323
 N         11.511094   -3.965586    0.037498
 N         10.494637   -4.815727    0.059053
 C         12.939841   -1.223795   -0.018444
 C         10.709290   -6.256561    0.035899
 C         13.935657   -2.198112    0.007707
 S         13.646417    0.383938   -0.045317
 H         11.629252   -6.473438    0.577950
 H          9.856714   -6.733859    0.517511
 H         10.795911   -6.602549   -0.997829
 C         15.231527   -1.666309    0.006665
 H         13.710518   -3.255153    0.027163
 C         15.273347   -0.274165   -0.020114
 H         16.132104   -2.270994    0.025233
 H          0.460784    3.464877    2.015611
 H          1.825435    5.657527    1.541934
 H         -0.383639   -3.535488   -1.829735
 H         -1.765198   -5.716283   -1.363803
 C        -16.470944   -0.420836   -0.163239
 C        -16.724639   -1.780552   -0.220484
 H        -17.369017    0.193416   -0.160404
 C        -18.140553   -2.212236   -0.269539
 C        -15.710287   -2.774489   -0.233948
 O        -19.096100   -1.453339   -0.260946
 O        -18.254912   -3.555255   -0.325498
 N        -14.876067   -3.590998   -0.244582
 C        -19.598270   -4.065030   -0.375914
 H        -20.115002   -3.695354   -1.265306
 H        -19.495247   -5.149168   -0.416042
 H        -20.155571   -3.765072    0.515241
 C         16.484692    0.474761   -0.024680
 C         16.718282    1.824115   -0.047424
 H         17.389004   -0.130651   -0.006465
 C         18.136412    2.279435   -0.044065
 C         15.686096    2.804969   -0.073635
 O         19.096795    1.531031   -0.023517
 O         18.226000    3.620388   -0.066360
 N         14.836814    3.603148   -0.095153
 C         19.561325    4.159896   -0.065057
 H         20.109447    3.820007   -0.947085
 H         19.435181    5.241800   -0.084173
 H         20.095712    3.849849    0.836183
       118
S1: Total Energy = -6630.50357906
 C        -15.254559    0.283791   -0.052437
 C        -15.203961    1.682933   -0.040464
 S        -13.624606   -0.379103   -0.029137
 C        -13.913685    2.209784   -0.013420
 H        -16.103711    2.289334   -0.051562
 C        -12.909306    1.233055   -0.004309
 H        -13.687625    3.266785   -0.000956
 C        -11.489333    1.460450    0.019982
 C        -10.529062    0.441859    0.024248
 C        -10.889439    2.768596    0.043498
 C         -9.143531    0.650886    0.043813
 C         -9.478109    2.980491    0.064399
 C         -8.523947    1.904672    0.062785
 F        -10.919650   -0.848183    0.007855
 F         -8.387200   -0.465909    0.043150
 N        -11.490292    3.975491    0.042825
 N         -9.254925    4.309421    0.075941
 N        -10.476056    4.829758    0.056927
 C        -10.691909    6.267119    0.132689
 H         -9.864963    6.764207   -0.373915
 H        -11.636559    6.495356   -0.359917
 H        -10.731776    6.585439    1.178529
 C         -7.099161    2.101494    0.079358
 C         -6.417835    3.324440    0.103588
 S         -5.945637    0.769564    0.070494
 C         -5.026704    3.197910    0.111883
 H         -6.941624    4.270190    0.112647
 C         -4.577928    1.876162    0.093359
 H         -4.353409    4.048505    0.127490
 C         -3.238884    1.396527    0.090729
 C         -2.806675    0.073205    0.022138
 S         -1.873502    2.511566    0.175203
 C         -1.407015   -0.083553    0.047809
 H         -3.497428   -0.754895   -0.073435
 C         -0.722617    1.174064    0.114095
 C         -0.659907   -1.307356   -0.058499
 C          0.659906    1.307163    0.059539
 C          0.722618   -1.174256   -0.113068
 C         -1.306480   -2.620752   -0.117921
 C          1.407014    0.083362   -0.046786
 C          1.306474    2.620560    0.118994
 S          1.873511   -2.511752   -0.174219
 C         -1.058177   -3.647174   -1.003155
 S         -2.517190   -3.126779    1.057380
 C          2.806673   -0.073390   -0.021119
 C          1.058156    3.646961    1.004248
 S          2.517174    3.126630   -1.056300
 C          3.238889   -1.396707   -0.089729
 C         -1.830406   -4.815478   -0.754145
 C         -2.669726   -4.705385    0.325660
 H          3.497422    0.754709    0.074490
 C          1.830380    4.815275    0.755272
 C          2.669708    4.705212   -0.324531
 C          4.577942   -1.876321   -0.092397
 C         -3.616485   -5.727918    0.878243
 C          3.616482    5.727756   -0.877069
 C          5.026752   -3.198061   -0.110693
 S          5.945620   -0.769680   -0.069942
 H         -4.653683   -5.373170    0.860599
 H         -3.560997   -6.642104    0.280054
 H         -3.375850   -5.986955    1.916079
 H          3.375958    5.986715   -1.914950
 H          3.560883    6.641977   -0.278944
 H          4.653695    5.373056   -0.859281
 C          6.417889   -3.324548   -0.102547
 H          4.353478   -4.048678   -0.125992
 C          7.099182   -2.101576   -0.078667
 H          6.941706   -4.270284   -0.111454
 C          8.523965   -1.904705   -0.062369
 C          9.143511   -0.650898   -0.043574
 C          9.478164   -2.980490   -0.064131
 C         10.529038   -0.441822   -0.024331
 F          8.387145    0.465874   -0.042786
 C         10.889493   -2.768545   -0.043597
 N          9.255023   -4.309429   -0.075537
 C         11.489347   -1.460378   -0.020285
 F         10.919581    0.848234   -0.008060
 N         11.490388   -3.975418   -0.042997
 N         10.476177   -4.829721   -0.056791
 C         12.909321   -1.232934    0.003579
 C         10.692061   -6.267081   -0.132492
 C         13.913734   -2.209630    0.012254
 S         13.624574    0.379245    0.028395
 H         11.636896   -6.495228    0.359799
 H          9.865317   -6.764159    0.374453
 H         10.731569   -6.585497   -1.178316
 C         15.204002   -1.682739    0.038922
 H         13.687704   -3.266638   -0.000247
 C         15.254557   -0.283597    0.051033
 H         16.103776   -2.289112    0.049635
 H          0.365989    3.552287    1.833644
 H          1.773770    5.712303    1.363036
 H         -0.366018   -3.552524   -1.832560
 H         -1.773805   -5.712522   -1.361888
 C        -16.460169   -0.457828   -0.080599
 C        -16.701259   -1.815616   -0.092412
 H        -17.363392    0.149007   -0.096165
 C        -18.113823   -2.262000   -0.125629
 C        -15.676179   -2.800458   -0.073217
 O        -19.076799   -1.512901   -0.140272
 O        -18.214902   -3.607216   -0.138442
 N        -14.832501   -3.606562   -0.056171
 C        -19.553172   -4.131798   -0.171094
 H        -20.074227   -3.796333   -1.071486
 H        -19.439260   -5.215592   -0.176285
 H        -20.112894   -3.808870    0.710461
 C         16.460156    0.458057    0.078857
 C         16.701212    1.815849    0.090789
 H         17.363402   -0.148754    0.094004
 C         18.113776    2.262268    0.123566
 C         15.676095    2.800664    0.072154
 O         19.076777    1.513191    0.137750
 O         18.214825    3.607484    0.136482
 N         14.832391    3.606750    0.055545
 C         19.553095    4.132097    0.168684
 H         20.112541    3.809153   -0.713040
 H         19.439160    5.215888    0.173882
 H         20.074446    3.796671    1.068920
