       106
S0: Total Energy = -5677.34153036
 C        -15.302311    0.102558    0.008301
 C        -15.272288    1.494913   -0.001888
 S        -13.669525   -0.541821    0.014298
 C        -13.980584    2.037702   -0.005480
 H        -16.177999    2.092203   -0.006755
 C        -12.976994    1.071745    0.002117
 H        -13.764220    3.096720   -0.013724
 C        -11.545446    1.312187   -0.000682
 C        -10.586509    0.307638    0.011294
 C        -10.960690    2.622923   -0.015318
 C         -9.191676    0.527540    0.006360
 C         -9.551540    2.844089   -0.020155
 C         -8.589240    1.778538   -0.011170
 F        -10.961698   -0.984157    0.028131
 F         -8.435602   -0.588493    0.018774
 N        -11.570963    3.826119   -0.034312
 N         -9.338964    4.176604   -0.041859
 N        -10.561338    4.684666   -0.053320
 C        -10.788064    6.123270   -0.013681
 H         -9.932648    6.613244   -0.477021
 H        -11.702282    6.341029   -0.565203
 H        -10.891531    6.454356    1.023371
 C         -7.155749    1.993723   -0.019460
 C         -6.489060    3.209669   -0.034499
 S         -5.989946    0.670143   -0.016909
 C         -5.084484    3.089934   -0.040295
 H         -7.012925    4.155686   -0.038792
 C         -4.636940    1.780487   -0.029042
 H         -4.416792    3.944751   -0.045401
 C         -3.276125    1.297405   -0.029824
 C         -2.828484    0.006057    0.091014
 S         -1.933086    2.450050   -0.207572
 C         -1.404374   -0.119042    0.047791
 H         -3.489096   -0.842444    0.228589
 C         -0.762061    1.145381   -0.094312
 C         -0.619951   -1.285686    0.141811
 C          0.619951    1.286016   -0.136701
 C          0.762064   -1.145053    0.099384
 C          1.404373    0.119366   -0.042728
 S          1.933092   -2.449748    0.212360
 C          2.828471   -0.005757   -0.086306
 C          3.276105   -1.297133    0.034241
 H          3.489057    0.842723   -0.224128
 C          4.636897   -1.780282    0.032601
 C          5.084385   -3.089762    0.041879
 S          5.989939   -0.669976    0.021621
 C          6.488955   -3.209546    0.035230
 H          4.416649   -3.944550    0.046000
 C          7.155687   -1.993607    0.021538
 H          7.012783   -4.155589    0.037816
 C          8.589181   -1.778475    0.012292
 C          9.191659   -0.527463   -0.002604
 C          9.551438   -2.844091    0.017271
 C         10.586495   -0.307614   -0.008843
 F          8.435623    0.588633   -0.011116
 C         10.960591   -2.622979    0.011093
 N          9.338827   -4.176650    0.035724
 C         11.545394   -1.312237   -0.000928
 F         10.961727    0.984203   -0.022753
 N         11.570830   -3.826249    0.026073
 N         10.561189   -4.684797    0.044202
 C         12.976949   -1.071862   -0.005468
 C         10.787802   -6.123300    0.000500
 C         13.980495   -2.037892   -0.002532
 S         13.669551    0.541696   -0.014200
 H         11.702618   -6.342569    0.550434
 H          9.932874   -6.614461    0.463480
 H         10.890115   -6.451639   -1.037540
 C         15.272222   -1.495163   -0.006979
 H         13.764085   -3.096918    0.003037
 C         15.302309   -0.102786   -0.013197
 H         16.177905   -2.092514   -0.005608
 C        -16.507498   -0.656261    0.012547
 C        -16.730724   -2.007436    0.020590
 H        -17.416538   -0.057703    0.008289
 C        -18.145326   -2.473363    0.022397
 C        -15.690949   -2.980626    0.026783
 O        -19.111510   -1.732157    0.017568
 O        -18.224894   -3.815183    0.029920
 N        -14.835563   -3.772510    0.031658
 C        -19.556198   -4.364441    0.032116
 H        -20.099375   -4.048274   -0.861727
 H        -19.422054   -5.445542    0.038115
 H        -20.100442   -4.038532    0.921801
 C         16.507532    0.655973   -0.017758
 C         16.730832    2.007152   -0.022546
 H         17.416540    0.057353   -0.017008
 C         18.145459    2.472989   -0.026063
 C         15.691114    2.980423   -0.023834
 O         19.111598    1.731711   -0.025153
 O         18.225106    3.814819   -0.030280
 N         14.835783    3.772380   -0.024680
 C         19.556442    4.363992   -0.033749
 H         20.098911    4.040248   -0.925306
 H         19.422363    5.445114   -0.036802
 H         20.101355    4.045581    0.858239
 O          1.192814    2.524120   -0.309236
 O         -1.192801   -2.523805    0.314288
 C          1.622753    3.161182    0.906621
 H          2.043147    4.124080    0.611293
 H          0.776744    3.320333    1.584918
 H          2.389384    2.565107    1.414500
 C         -1.622603   -3.160881   -0.901610
 H         -0.776566   -3.319779   -1.579931
 H         -2.042761   -4.123902   -0.606347
 H         -2.389384   -2.564955   -1.409436
       106
T1: Total Energy = -5677.29406227
 C         15.269938   -0.105225    0.012572
 C         15.221997   -1.514403   -0.043099
 S         13.637925    0.555258    0.054177
 C         13.945049   -2.043564   -0.052708
 H         16.126064   -2.113454   -0.075492
 C         12.921157   -1.066736   -0.005166
 H         13.721409   -3.100344   -0.093287
 C         11.526105   -1.304552   -0.005750
 C         10.541241   -0.280160    0.041458
 C         10.927444   -2.622128   -0.055090
 C          9.176801   -0.495449    0.034402
 C          9.519899   -2.844145   -0.061737
 C          8.549626   -1.771314   -0.020264
 F         10.939248    1.007550    0.096000
 F          8.401115    0.606201    0.082632
 N         11.537939   -3.818918   -0.110301
 N          9.306246   -4.169312   -0.120822
 N         10.532683   -4.685121   -0.153503
 C         10.757317   -6.122013   -0.142845
 H          9.959713   -6.598806   -0.712685
 H         11.724991   -6.317052   -0.604078
 H         10.753251   -6.497580    0.884806
 C          7.152140   -1.966684   -0.034351
 C          6.468391   -3.211510   -0.087801
 S          5.973099   -0.643960    0.009145
 C          5.090810   -3.100259   -0.094446
 H          7.005832   -4.148878   -0.120511
 C          4.616061   -1.774855   -0.046941
 H          4.425023   -3.955986   -0.133349
 C          3.278610   -1.323038   -0.046205
 C          2.819792   -0.005100    0.005276
 S          1.923276   -2.477827   -0.121210
 C          1.412794    0.114335   -0.017639
 H          3.486275    0.846704    0.074084
 C          0.759588   -1.159109   -0.066530
 C          0.627816    1.295436    0.020036
 C         -0.616317   -1.295036   -0.064903
 C         -0.750731    1.156464    0.022184
 C         -1.400256   -0.114418   -0.025935
 S         -1.916382    2.469863    0.075243
 C         -2.814916    0.009382   -0.047441
 C         -3.262760    1.314125    0.001845
 H         -3.480480   -0.843553   -0.114403
 C         -4.618973    1.790598    0.001379
 C         -5.070922    3.102087    0.011355
 S         -5.971818    0.676880   -0.008367
 C         -6.472422    3.218436    0.009903
 H         -4.405084    3.958358    0.017178
 C         -7.137893    1.998655   -0.000875
 H         -6.999312    4.162711    0.016001
 C         -8.569673    1.783200   -0.002410
 C         -9.170939    0.530434   -0.016962
 C         -9.532959    2.848088    0.011264
 C        -10.564545    0.308666   -0.014616
 F         -8.412408   -0.583379   -0.033328
 C        -10.941598    2.624552    0.013916
 N         -9.322217    4.180580    0.031725
 C        -11.524911    1.312860    0.002570
 F        -10.938483   -0.983422   -0.029488
 N        -11.553545    3.826752    0.036027
 N        -10.545568    4.686958    0.049604
 C        -12.955408    1.070592    0.007990
 C        -10.774597    6.125306    0.010837
 C        -13.960535    2.035292    0.022745
 S        -13.646028   -0.544149   -0.001667
 H        -11.691390    6.340344    0.559031
 H         -9.922006    6.616451    0.478181
 H        -10.874536    6.457383   -1.026232
 C        -15.251261    1.490765    0.026674
 H        -13.745847    3.094653    0.030691
 C        -15.279210    0.098192    0.015188
 H        -16.157776    2.086696    0.037895
 C         16.470246    0.632211    0.028699
 C         16.707673    1.995362    0.080927
 H         17.375716    0.030032   -0.006617
 C         18.118886    2.445807    0.079164
 C         15.681600    2.975510    0.136567
 O         19.082917    1.699072    0.035155
 O         18.217512    3.789944    0.131844
 N         14.837717    3.780747    0.183309
 C         19.555094    4.317525    0.134810
 H         20.084524    4.024229   -0.775311
 H         19.439080    5.400205    0.178222
 H         20.107464    3.955404    1.005689
 C        -16.483407   -0.662598    0.017903
 C        -16.703861   -2.014127    0.009443
 H        -17.393460   -0.065716    0.029084
 C        -18.117727   -2.483067    0.016668
 C        -15.662139   -2.985128   -0.005469
 O        -19.085041   -1.743547    0.028877
 O        -18.194412   -3.824861    0.008163
 N        -14.804957   -3.774979   -0.017720
 C        -19.524588   -4.377145    0.014217
 H        -20.075341   -4.051406   -0.871493
 H        -19.388029   -5.457911    0.006123
 H        -20.062396   -4.063096    0.912021
 O         -1.199931   -2.534946   -0.145719
 O          1.207393    2.535018    0.099002
 C         -1.628690   -3.084075    1.114366
 H         -2.065283   -4.057491    0.885546
 H         -0.778039   -3.210404    1.793342
 H         -2.381711   -2.444253    1.587696
 C          1.651307    3.081695   -1.157925
 H          0.807491    3.208738   -1.845056
 H          2.087356    4.054191   -0.924933
 H          2.407647    2.439419   -1.621922
       106
S1: Total Energy = -5677.27903447
 C         15.258090   -0.096681    0.009033
 C         15.223520   -1.496024   -0.020338
 S         13.621050    0.547594    0.030376
 C         13.939071   -2.037505   -0.026661
 H         16.130204   -2.091848   -0.036961
 C         12.923760   -1.072305   -0.002025
 H         13.724889   -3.096817   -0.048903
 C         11.506447   -1.315762   -0.004158
 C         10.534861   -0.307865    0.023424
 C         10.921161   -2.630366   -0.034948
 C          9.151945   -0.532401    0.017124
 C          9.512320   -2.858250   -0.041131
 C          8.546371   -1.793157   -0.017282
 F         10.911341    0.985770    0.057493
 F          8.382683    0.574798    0.045841
 N         11.535602   -3.829834   -0.070653
 N          9.304022   -4.188892   -0.080447
 N         10.531151   -4.694994   -0.101200
 C         10.761995   -6.131891   -0.075400
 H          9.953310   -6.618226   -0.620518
 H         11.720727   -6.330171   -0.553411
 H         10.780694   -6.489760    0.958127
 C          7.124458   -2.005411   -0.028066
 C          6.456727   -3.236580   -0.060246
 S          5.956096   -0.686662   -0.004609
 C          5.065144   -3.126042   -0.066074
 H          6.991511   -4.176006   -0.078695
 C          4.600806   -1.808870   -0.038633
 H          4.401689   -3.984116   -0.089272
 C          3.257367   -1.345883   -0.039003
 C          2.808646   -0.024009    0.002044
 S          1.904222   -2.489874   -0.097594
 C          1.408564    0.104005   -0.017568
 H          3.482800    0.822202    0.062853
 C          0.746294   -1.166489   -0.049607
 C          0.626596    1.297523    0.018758
 C         -0.626632   -1.297248   -0.026797
 C         -0.746328    1.166762    0.041619
 C         -1.408596   -0.103732    0.009607
 S         -1.904250    2.490136    0.089928
 C         -2.808682    0.024268   -0.009620
 C         -3.257404    1.346133    0.031754
 H         -3.482842   -0.821953   -0.070228
 C         -4.600851    1.809095    0.032269
 C         -5.065200    3.126242    0.060725
 S         -5.956141    0.686873   -0.001336
 C         -6.456789    3.236748    0.056086
 H         -4.401748    3.984320    0.083877
 C         -7.124516    2.005577    0.023839
 H         -6.991582    4.176149    0.075523
 C         -8.546432    1.793282    0.014517
 C         -9.152000    0.532541   -0.020563
 C         -9.512394    2.858302    0.041017
 C        -10.534913    0.307946   -0.024956
 F         -8.382732   -0.574586   -0.051774
 C        -10.921231    2.630354    0.036879
 N         -9.304096    4.188908    0.081498
 C        -11.506501    1.315756    0.005574
 F        -10.911384   -0.985664   -0.060035
 N        -11.535671    3.829751    0.074931
 N        -10.531213    4.694925    0.104823
 C        -12.923802    1.072215    0.005994
 C        -10.762160    6.131839    0.080963
 C        -13.939117    2.037298    0.034610
 S        -13.621054   -0.547673   -0.027638
 H        -11.720056    6.329581    0.560868
 H         -9.952529    6.617613    0.625175
 H        -10.782682    6.490806   -0.952148
 C        -15.223542    1.495733    0.030412
 H        -13.724956    3.096587    0.058160
 C        -15.258081    0.096442   -0.001313
 H        -16.130226    2.091458    0.050271
 C         16.456028    0.658507    0.018225
 C         16.681880    2.018369    0.043314
 H         17.366015    0.061931    0.002070
 C         18.090125    2.480791    0.044791
 C         15.645481    2.991254    0.067230
 O         19.061032    1.742303    0.024965
 O         18.176232    3.826568    0.070596
 N         14.792230    3.787096    0.086628
 C         19.509009    4.366415    0.074500
 H         20.049027    4.059790   -0.824952
 H         19.382845    5.448643    0.095079
 H         20.056977    4.026934    0.957208
 C        -16.455980   -0.658833   -0.008711
 C        -16.681781   -2.018661   -0.035858
 H        -17.365968   -0.062372    0.011172
 C        -18.089979   -2.481232   -0.034048
 C        -15.645383   -2.991405   -0.065033
 O        -19.060906   -1.742893   -0.010054
 O        -18.176007   -3.826968   -0.062137
 N        -14.792183   -3.787181   -0.088885
 C        -19.508726   -4.366971   -0.063276
 H        -20.059232   -4.025897   -0.943788
 H        -19.382492   -5.449143   -0.086257
 H        -20.046226   -4.062112    0.838279
 O         -1.213497   -2.529768   -0.090330
 O          1.213424    2.530055    0.082331
 C         -1.695622   -3.051907    1.165357
 H         -2.144779   -4.018110    0.933098
 H         -0.867214   -3.185832    1.869121
 H         -2.448254   -2.389698    1.605467
 C          1.695919    3.052078   -1.173261
 H          0.867707    3.185971   -1.877263
 H          2.145040    4.018285   -0.940953
 H          2.448650    2.389815   -1.613116
