       109
S0: Total Energy = -5132.51253145
 C          5.412158    0.961706   -0.003995
 C          5.190517    2.331815   -0.006905
 C          3.834635    2.704822   -0.006513
 C          2.959507    1.627687   -0.003352
 S          3.871630    0.119892   -0.001226
 H          3.497238    3.731030   -0.008637
 C          1.505995    1.661495   -0.002373
 C          0.731583    2.886239   -0.003808
 N          1.249576    4.114601   -0.006009
 S         -0.000007    5.178951   -0.006902
 N         -1.249590    4.114594   -0.004490
 C         -0.731586    2.886237   -0.002900
 C         -1.505990    1.661492   -0.000572
 C         -0.708190    0.532390    0.000857
 C          0.708196    0.532396    0.000020
 F         -1.263868   -0.694451    0.003107
 F          1.263886   -0.694447    0.001714
 C         -2.959504    1.627685    0.000079
 C         -3.834630    2.704826    0.000239
 C         -5.190513    2.331823    0.000524
 C         -5.412158    0.961711    0.000545
 S         -3.871631    0.119890    0.000391
 H         -3.497228    3.731034    0.000061
 H         -5.985690    3.067553    0.000704
 H          5.985693    3.067539   -0.009742
 C         -6.712013    0.291016    0.000526
 C         -7.892722    1.057808    0.000340
 C         -6.869243   -1.120137    0.000601
 C         -9.160376    0.484649    0.000099
 H         -7.812353    2.135369    0.000307
 C         -8.134690   -1.693170    0.000313
 C         -9.317568   -0.925911   -0.000093
 H         -8.213979   -2.770671    0.000558
 C          6.712011    0.291008   -0.002672
 C          6.869241   -1.120144   -0.004737
 C          7.892715    1.057799    0.000603
 C          8.134690   -1.693174   -0.004103
 C          9.160369    0.484641    0.001190
 H          7.812343    2.135355    0.003195
 C          9.317565   -0.925917   -0.001224
 H          8.213980   -2.770673   -0.006057
 O         -5.719591   -1.851637    0.001036
 O          5.719591   -1.851641   -0.007422
 O        -10.306902    1.215195   -0.000041
 O         10.306892    1.215183    0.004274
 C        -10.616193   -1.594476   -0.000797
 C        -10.823072   -2.976701   -0.002680
 S        -12.153208   -0.747787    0.000783
 C        -12.170201   -3.342169   -0.002704
 H        -10.021881   -3.704959   -0.004182
 C        -13.053366   -2.259906   -0.000894
 H        -12.517736   -4.370303   -0.004082
 C         10.616191   -1.594477   -0.000759
 C         10.823075   -2.976703   -0.002069
 S         12.153205   -0.747784    0.001233
 C         12.170204   -3.342167   -0.001629
 H         10.021887   -3.704963   -0.003262
 C         13.053368   -2.259902    0.000044
 H         12.517743   -4.370299   -0.002488
 C        -14.464365   -2.433746   -0.000779
 C        -15.527198   -1.571408    0.000581
 H        -14.763821   -3.483924   -0.002059
 C        -15.588201   -0.097367    0.002473
 C        -16.919432   -2.092505    0.000212
 O        -14.659434    0.706366    0.003301
 C        -17.040639    0.264802    0.003266
 C        -17.819927   -0.900692    0.001943
 C        -17.630583    1.524497    0.005008
 C        -19.209536   -0.838415    0.002333
 C        -19.027722    1.592973    0.005411
 H        -17.018765    2.421567    0.006014
 C        -19.807700    0.426016    0.004090
 H        -19.804095   -1.747098    0.001309
 H        -19.519426    2.561703    0.006764
 H        -20.890832    0.509599    0.004442
 C         14.464368   -2.433743    0.000617
 C         15.527199   -1.571400    0.002008
 H         14.763826   -3.483922   -0.000309
 C         15.588209   -0.097357    0.003477
 C         16.919430   -2.092503    0.002104
 O         14.659449    0.706383    0.003830
 C         17.040647    0.264804    0.004453
 C         17.819931   -0.900691    0.003674
 C         17.630591    1.524499    0.005921
 C         19.209541   -0.838413    0.004348
 C         19.027728    1.592977    0.006608
 H         17.018761    2.421558    0.006504
 C         19.807705    0.426019    0.005831
 H         19.804100   -1.747097    0.003743
 H         19.519431    2.561707    0.007764
 H         20.890836    0.509594    0.006388
 C        -10.244332    2.638477    0.000518
 H         -9.735936    3.011517    0.897354
 H         -9.735870    3.012223   -0.895987
 H        -11.281075    2.975733    0.000606
 C         -5.788303   -3.273503    0.000560
 H         -6.298337   -3.646390    0.896830
 H         -6.298034   -3.645800   -0.896126
 H         -4.753630   -3.617846    0.000634
 C          5.788297   -3.273509   -0.008859
 H          6.299192   -3.645141   -0.905159
 H          6.297164   -3.647061    0.887796
 H          4.753623   -3.617844   -0.010422
 C         10.244317    2.638466    0.006316
 H          9.736970    3.013186   -0.890415
 H          9.734800    3.010526    0.902923
 H         11.281058    2.975723    0.008081
 O        -17.271385   -3.266726   -0.001248
 O         17.271374   -3.266728    0.001110
       109
T1: Total Energy = -5132.46989345
 C         -5.389354    0.892476    0.000181
 C         -5.150228    2.276897    0.000590
 C         -3.811295    2.639068    0.000527
 C         -2.920121    1.542977    0.000076
 S         -3.852195    0.033009   -0.000219
 H         -3.458469    3.659666    0.000830
 C         -1.501554    1.585890   -0.000060
 C         -0.732148    2.819157    0.000120
 N         -1.258464    4.039763    0.000352
 S          0.000000    5.130763    0.000476
 N          1.258465    4.039763    0.000229
 C          0.732148    2.819158    0.000045
 C          1.501554    1.585890   -0.000190
 C          0.685731    0.413824   -0.000417
 C         -0.685731    0.413824   -0.000362
 F          1.281212   -0.798737   -0.000695
 F         -1.281212   -0.798737   -0.000596
 C          2.920121    1.542976   -0.000180
 C          3.811295    2.639068    0.000020
 C          5.150228    2.276896    0.000035
 C          5.389354    0.892476   -0.000152
 S          3.852195    0.033009   -0.000391
 H          3.458469    3.659665    0.000160
 H          5.942993    3.014958    0.000187
 H         -5.942993    3.014958    0.001029
 C          6.684107    0.251524   -0.000109
 C          7.862161    1.035338    0.000180
 C          6.864470   -1.164351   -0.000333
 C          9.131982    0.478719    0.000304
 H          7.769121    2.111567    0.000336
 C          8.135348   -1.718984   -0.000198
 C          9.309839   -0.935213    0.000175
 H          8.229111   -2.795162   -0.000459
 C         -6.684107    0.251525   -0.000002
 C         -6.864470   -1.164351    0.000247
 C         -7.862161    1.035338   -0.000407
 C         -8.135348   -1.718984    0.000172
 C         -9.131982    0.478719   -0.000482
 H         -7.769121    2.111567   -0.000766
 C         -9.309839   -0.935213   -0.000202
 H         -8.229111   -2.795162    0.000477
 O          5.727060   -1.907510   -0.000712
 O         -5.727060   -1.907510    0.000610
 O         10.270597    1.218847    0.000574
 O        -10.270597    1.218847   -0.000877
 C         10.612546   -1.582818    0.000442
 C         10.837622   -2.964751    0.000956
 S         12.141888   -0.717611    0.000059
 C         12.187199   -3.313201    0.001001
 H         10.045640   -3.702978    0.001371
 C         13.058324   -2.219084    0.000546
 H         12.547582   -4.336814    0.001394
 C        -10.612546   -1.582817   -0.000305
 C        -10.837622   -2.964751   -0.000465
 S        -12.141888   -0.717611   -0.000155
 C        -12.187200   -3.313201   -0.000418
 H        -10.045640   -3.702978   -0.000656
 C        -13.058324   -2.219083   -0.000228
 H        -12.547582   -4.336814   -0.000532
 C         14.470966   -2.376753    0.000576
 C         15.523088   -1.500624    0.000267
 H         14.783205   -3.423107    0.000923
 C         15.565858   -0.025875   -0.000224
 C         16.921924   -2.004199    0.000425
 O         14.626801    0.765958   -0.000501
 C         17.013408    0.354374   -0.000386
 C         17.807299   -0.801355   -0.000003
 C         17.587448    1.621372   -0.000831
 C         19.195987   -0.721646   -0.000056
 C         18.983665    1.707335   -0.000885
 H         16.964435    2.510696   -0.001122
 C         19.778199    0.550261   -0.000503
 H         19.801933   -1.622749    0.000240
 H         19.463169    2.682149   -0.001228
 H         20.860183    0.647427   -0.000557
 C        -14.470966   -2.376753   -0.000164
 C        -15.523088   -1.500624   -0.000001
 H        -14.783204   -3.423107   -0.000255
 C        -15.565859   -0.025875    0.000171
 C        -16.921924   -2.004199    0.000036
 O        -14.626801    0.765958    0.000195
 C        -17.013408    0.354374    0.000297
 C        -17.807299   -0.801355    0.000216
 C        -17.587449    1.621372    0.000469
 C        -19.195987   -0.721646    0.000304
 C        -18.983666    1.707335    0.000560
 H        -16.964435    2.510696    0.000531
 C        -19.778199    0.550261    0.000477
 H        -19.801933   -1.622750    0.000240
 H        -19.463170    2.682148    0.000695
 H        -20.860183    0.647427    0.000550
 C         10.194569    2.641998    0.000601
 H          9.682415    3.009470   -0.896272
 H          9.682207    3.009426    0.897373
 H         11.228015    2.988863    0.000731
 C          5.809369   -3.330126   -0.000766
 H          6.323165   -3.695533   -0.897522
 H          6.322900   -3.695615    0.896108
 H          4.777914   -3.683201   -0.000939
 C         -5.809369   -3.330126    0.000643
 H         -6.323121   -3.695549    0.897418
 H         -6.322944   -3.695599   -0.896212
 H         -4.777914   -3.683200    0.000761
 C        -10.194569    2.641998   -0.000860
 H         -9.682387    3.009441    0.896008
 H         -9.682236    3.009456   -0.897637
 H        -11.228015    2.988863   -0.000951
 O         17.287917   -3.174123    0.000813
 O        -17.287917   -3.174124   -0.000080
       109
S1: Total Energy = -5132.45253199
 C         -5.392926    0.904812    0.000710
 C         -5.155069    2.288303    0.001322
 C         -3.812588    2.650407    0.001265
 C         -2.928594    1.557848    0.000601
 S         -3.853296    0.050184    0.000160
 H         -3.459142    3.670886    0.001720
 C         -1.495894    1.596610    0.000358
 C         -0.730274    2.827202    0.000553
 N         -1.259951    4.052804    0.000994
 S         -0.000000    5.134578    0.001047
 N          1.259951    4.052804    0.000508
 C          0.730274    2.827202    0.000269
 C          1.495894    1.596610   -0.000210
 C          0.693688    0.439313   -0.000430
 C         -0.693689    0.439313   -0.000136
 F          1.277006   -0.779083   -0.000902
 F         -1.277007   -0.779083   -0.000384
 C          2.928593    1.557848   -0.000368
 C          3.812587    2.650408   -0.000256
 C          5.155069    2.288303   -0.000338
 C          5.392926    0.904812   -0.000509
 S          3.853296    0.050184   -0.000639
 H          3.459141    3.670886   -0.000095
 H          5.947676    3.026477   -0.000259
 H         -5.947677    3.026476    0.001971
 C          6.683324    0.264122   -0.000493
 C          7.865330    1.045045   -0.000251
 C          6.862635   -1.155672   -0.000673
 C          9.131638    0.485321   -0.000135
 H          7.775090    2.121440   -0.000121
 C          8.130566   -1.713926   -0.000529
 C          9.308978   -0.933307   -0.000194
 H          8.220853   -2.790280   -0.000754
 C         -6.683324    0.264121    0.000355
 C         -6.862635   -1.155672    0.000771
 C         -7.865330    1.045044   -0.000384
 C         -8.130566   -1.713927    0.000622
 C         -9.131638    0.485320   -0.000549
 H         -7.775090    2.121439   -0.001009
 C         -9.308978   -0.933307   -0.000035
 H         -8.220853   -2.790280    0.001117
 O          5.724218   -1.893341   -0.001013
 O         -5.724218   -1.893342    0.001393
 O         10.271604    1.219679    0.000087
 O        -10.271604    1.219678   -0.001282
 C         10.605588   -1.579298    0.000120
 C         10.828388   -2.965000    0.000682
 S         12.141452   -0.719170   -0.000221
 C         12.174109   -3.317442    0.000816
 H         10.034004   -3.700693    0.001090
 C         13.051723   -2.224972    0.000383
 H         12.531367   -4.342096    0.001268
 C        -10.605588   -1.579299   -0.000174
 C        -10.828388   -2.965001   -0.000137
 S        -12.141452   -0.719170   -0.000280
 C        -12.174109   -3.317443   -0.000103
 H        -10.034004   -3.700695   -0.000184
 C        -13.051723   -2.224972   -0.000124
 H        -12.531367   -4.342097   -0.000067
 C         14.461956   -2.388432    0.000526
 C         15.518878   -1.514176    0.000279
 H         14.770840   -3.435626    0.000932
 C         15.566978   -0.040854   -0.000259
 C         16.914421   -2.022960    0.000578
 O         14.630722    0.755596   -0.000613
 C         17.015846    0.334816   -0.000299
 C         17.805414   -0.824123    0.000187
 C         17.594603    1.599336   -0.000729
 C         19.194089   -0.749781    0.000257
 C         18.991685    1.680136   -0.000664
 H         16.974978    2.491043   -0.001102
 C         19.781554    0.520327   -0.000176
 H         19.796571   -1.653233    0.000634
 H         19.474789    2.653211   -0.000995
 H         20.863956    0.613146   -0.000136
 C        -14.461957   -2.388433   -0.000051
 C        -15.518878   -1.514176   -0.000065
 H        -14.770841   -3.435626    0.000050
 C        -15.566978   -0.040854   -0.000184
 C        -16.914421   -2.022959    0.000056
 O        -14.630721    0.755596   -0.000303
 C        -17.015845    0.334817   -0.000175
 C        -17.805414   -0.824123   -0.000035
 C        -17.594602    1.599337   -0.000281
 C        -19.194089   -0.749780    0.000002
 C        -18.991684    1.680138   -0.000244
 H        -16.974976    2.491044   -0.000388
 C        -19.781553    0.520329   -0.000104
 H        -19.796571   -1.653232    0.000110
 H        -19.474787    2.653213   -0.000325
 H        -20.863955    0.613148   -0.000079
 C         10.202561    2.643839    0.000017
 H          9.691879    3.012624   -0.896976
 H          9.691729    3.012707    0.896892
 H         11.237715    2.985191    0.000090
 C          5.799054   -3.317233   -0.000951
 H          6.311193   -3.684050   -0.897835
 H          6.310975   -3.683981    0.896084
 H          4.765718   -3.664349   -0.001070
 C         -5.799054   -3.317233    0.001509
 H         -6.311258   -3.683934    0.898402
 H         -6.310910   -3.684097   -0.895517
 H         -4.765718   -3.664349    0.001750
 C        -10.202561    2.643837   -0.001389
 H         -9.691995    3.012739    0.895622
 H         -9.691613    3.012590   -0.898246
 H        -11.237716    2.985190   -0.001648
 O         17.276146   -3.195023    0.001011
 O        -17.276146   -3.195022    0.000153
