       152
S0: Total Energy = -7632.23165759
 C         -6.534042    1.877613   -0.405683
 C         -7.322282    3.093514   -0.433921
 N         -6.817904    4.326696   -0.478300
 S         -8.078878    5.377381   -0.495358
 N         -9.316830    4.300376   -0.446580
 C         -8.785402    3.078078   -0.415409
 C         -9.545968    1.845951   -0.367512
 C         -8.735802    0.726143   -0.339962
 C         -7.319562    0.740838   -0.358100
 F         -9.278382   -0.505734   -0.292215
 F         -6.750475   -0.479739   -0.325062
 C        -10.999299    1.797178   -0.347267
 C        -11.885663    2.864272   -0.383851
 C        -13.238058    2.477545   -0.356595
 C        -13.443520    1.106962   -0.297112
 S        -11.895702    0.280601   -0.292249
 H        -11.558595    3.892546   -0.434680
 H        -14.044126    3.200635   -0.395612
 C        -14.736011    0.426930   -0.218289
 C        -15.902834    1.179258    0.011587
 C        -14.897970   -0.975593   -0.365891
 C        -17.167245    0.601632    0.074761
 H        -15.809752    2.245463    0.162020
 C        -16.159873   -1.552935   -0.302703
 C        -17.331976   -0.798444   -0.087937
 H        -16.245386   -2.623794   -0.418007
 O        -13.756648   -1.692720   -0.567630
 O        -18.301244    1.317227    0.298688
 C        -18.628113   -1.470117   -0.038394
 C        -18.849850   -2.834501   -0.245135
 S        -20.141899   -0.651032    0.302649
 C        -20.189541   -3.208879   -0.128442
 H        -18.064913   -3.542480   -0.479720
 C        -21.051945   -2.151395    0.170640
 H        -20.546752   -4.225544   -0.257447
 C        -18.229030    2.729773    0.469630
 H        -17.626981    2.991830    1.347564
 H        -17.814494    3.215124   -0.421792
 H        -19.257613    3.058101    0.620473
 C        -13.830385   -3.107283   -0.708007
 H        -14.249503   -3.574840    0.191089
 H        -14.428677   -3.388554   -1.582971
 H        -12.802249   -3.442945   -0.847456
 C         -5.080747    1.859905   -0.420825
 S         -4.150271    0.361717   -0.399459
 C         -4.217514    2.945111   -0.471087
 C         -2.621084    1.220567   -0.435834
 C         -2.856910    2.586924   -0.480133
 H         -4.566773    3.966766   -0.506403
 C         -1.313413    0.566014   -0.391190
 H         -2.067132    3.326867   -0.533569
 C         -1.124764   -0.829094   -0.558887
 C         -0.156024    1.340894   -0.183476
 C          0.151809   -1.380189   -0.532226
 O         -2.253595   -1.569274   -0.752099
 C          1.120651    0.789611   -0.156255
 H         -0.268454    2.403760   -0.021956
 C          1.310126   -0.604946   -0.328420
 H          0.262402   -2.443928   -0.688490
 C         -2.150742   -2.979846   -0.910246
 O          2.248494    1.529695    0.042270
 C          2.619220   -1.257512   -0.293994
 H         -1.567643   -3.238286   -1.802381
 H         -1.698951   -3.447388   -0.027088
 H         -3.173985   -3.338050   -1.028806
 C          2.145100    2.939649    0.205801
 C          2.859919   -2.623931   -0.300902
 S          4.146391   -0.393577   -0.272250
 H          1.694957    3.410433   -0.676463
 H          1.560173    3.194416    1.097760
 H          3.168053    3.297494    0.327797
 C          4.221571   -2.977465   -0.301510
 H          2.073349   -3.369015   -0.294238
 C          5.081673   -1.888657   -0.293237
 H          4.573565   -3.998789   -0.303136
 C          6.535033   -1.901669   -0.286717
 C          7.326906   -3.115427   -0.305357
 C          7.317395   -0.761870   -0.265981
 C          8.790083   -3.095250   -0.301511
 N          6.826088   -4.350661   -0.327098
 C          8.733673   -0.742609   -0.261127
 F          6.744771    0.457377   -0.247922
 C          9.547125   -1.860239   -0.279351
 N          9.325093   -4.316245   -0.320184
 S          8.090176   -5.397638   -0.341145
 F          9.272799    0.491499   -0.237616
 C         11.000417   -1.806873   -0.273031
 S         11.892758   -0.287195   -0.242785
 C         11.889601   -2.871751   -0.305409
 C         13.442959   -1.109149   -0.251470
 C         13.241017   -2.480891   -0.294199
 H         11.565158   -3.901468   -0.341733
 C         14.734109   -0.424713   -0.191158
 H         14.048775   -3.202155   -0.332244
 C         14.890728    0.976761   -0.353721
 C         15.905133   -1.171501    0.035408
 C         16.151511    1.558179   -0.307617
 O         13.745539    1.688754   -0.551658
 C         17.168420   -0.589851    0.081285
 H         15.816488   -2.236412    0.197107
 C         17.327685    0.809020   -0.096495
 H         16.232892    2.628162   -0.433517
 C         13.814044    3.101920   -0.707904
 O         18.306459   -1.300148    0.301535
 C         18.622364    1.484582   -0.065754
 H         14.239739    3.580300    0.182370
 H         14.403816    3.375389   -1.591098
 H         12.783773    3.433249   -0.841847
 C         18.239794   -2.711109    0.487235
 C         18.838823    2.846868   -0.291100
 S         20.140952    0.673646    0.273421
 H         17.646540   -2.966048    1.373224
 H         17.818507   -3.206472   -0.395477
 H         19.270636   -3.035096    0.631907
 C         20.178407    3.226078   -0.189645
 H         18.050216    3.549808   -0.528559
 C         21.045920    2.174580    0.115708
 H         20.531965    4.241908   -0.334330
 C        -22.452553   -2.336806    0.328194
 C        -23.495321   -1.496745    0.612177
 H        -22.762035   -3.375547    0.194635
 C        -23.537537   -0.043528    0.862818
 C        -24.881253   -2.024521    0.713313
 O        -22.607423    0.758622    0.869754
 C        -24.972238    0.299277    1.118012
 C        -25.758917   -0.858039    1.031090
 O        -25.244356   -3.186209    0.567097
 C        -25.541019    1.535876    1.404976
 C        -27.135039   -0.810252    1.228871
 C        -26.924471    1.589559    1.604587
 H        -24.923908    2.426971    1.470336
 C        -27.711856    0.430904    1.517671
 H        -27.736114   -1.711981    1.159684
 H        -27.399472    2.540163    1.830324
 H        -28.784003    0.502528    1.677455
 C         22.447326    2.365242    0.259209
 C         23.494478    1.531081    0.544486
 H         22.753163    3.402974    0.110235
 C         23.542320    0.081131    0.812505
 C         24.880028    2.063117    0.626711
 O         22.614117   -0.722864    0.838154
 C         24.980130   -0.255448    1.058329
 C         25.763303    0.902447    0.950138
 O         25.239070    3.223800    0.463495
 C         25.554423   -1.487271    1.354708
 C         27.141337    0.860041    1.135437
 C         26.939818   -1.535538    1.541849
 H         24.940025   -2.378873    1.436595
 C         27.723697   -0.376302    1.433606
 H         27.739658    1.762184    1.049765
 H         27.419100   -2.482327    1.774463
 H         28.797465   -0.443672    1.584080
       152
T1: Total Energy = -7632.18955773
 C          6.535367   -1.912065   -0.289888
 C          7.330935   -3.123334   -0.324596
 N          6.834779   -4.360198   -0.343555
 S          8.103004   -5.402519   -0.380201
 N          9.333355   -4.315542   -0.373291
 C          8.793722   -3.096998   -0.342174
 C          9.546359   -1.858771   -0.325868
 C          8.728676   -0.742850   -0.291405
 C          7.314424   -0.767666   -0.274937
 F          9.264686    0.492674   -0.270771
 F          6.735650    0.447980   -0.242234
 C         10.997893   -1.799789   -0.339277
 C         11.890802   -2.861968   -0.387555
 C         13.240192   -2.466806   -0.391441
 C         13.438123   -1.093999   -0.345079
 S         11.885963   -0.276940   -0.313938
 H         11.569288   -3.892565   -0.424181
 H         14.049921   -3.184969   -0.442798
 C         14.727566   -0.406250   -0.297133
 C         15.903264   -1.150645   -0.086464
 C         14.878133    0.996327   -0.456152
 C         17.165138   -0.565487   -0.052601
 H         15.819488   -2.216330    0.072538
 C         16.137785    1.581188   -0.422492
 C         17.318291    0.834566   -0.227792
 H         16.214671    2.651959   -0.544359
 O         13.728751    1.705524   -0.637758
 O         18.307618   -1.272885    0.152832
 C         18.611500    1.513507   -0.210359
 C         18.822379    2.875705   -0.441047
 S         20.134977    0.707429    0.118307
 C         20.161771    3.258778   -0.351260
 H         18.030090    3.575795   -0.674671
 C         21.034356    2.210351   -0.050063
 H         20.511543    4.275066   -0.501735
 C         18.247164   -2.684314    0.337434
 H         17.663766   -2.942113    1.229122
 H         17.818474   -3.179865   -0.541593
 H         19.280413   -3.005275    0.471170
 C         13.791363    3.119241   -0.793025
 H         14.225391    3.597708    0.093118
 H         14.370554    3.395325   -1.682348
 H         12.758692    3.447601   -0.915133
 C          5.084487   -1.903271   -0.272271
 S          4.143918   -0.412731   -0.238515
 C          4.228054   -2.998856   -0.280968
 C          2.618090   -1.284838   -0.234194
 C          2.868630   -2.653855   -0.259790
 H          4.586279   -4.017684   -0.302927
 C          1.310715   -0.647068   -0.204310
 H          2.088001   -3.404874   -0.265428
 C          1.118558    0.764917   -0.202200
 C          0.144038   -1.440770   -0.176021
 C         -0.154923    1.309785   -0.176328
 O          2.252268    1.517397   -0.227683
 C         -1.132161   -0.897894   -0.149620
 H          0.249216   -2.516005   -0.172687
 C         -1.327071    0.515834   -0.149883
 H         -0.258449    2.385067   -0.176610
 C          2.156480    2.938408   -0.226271
 O         -2.261662   -1.652604   -0.121083
 C         -2.625940    1.145376   -0.125064
 H          1.620618    3.299589   -1.112003
 H          1.658044    3.300415    0.680693
 H          3.184182    3.302086   -0.247916
 C         -2.165217   -3.074170   -0.118756
 C         -2.877910    2.527493   -0.123256
 S         -4.156846    0.272995   -0.093893
 H         -1.667898   -3.437578   -1.025577
 H         -1.628108   -3.431948    0.767403
 H         -3.192897   -3.437416   -0.094798
 C         -4.219893    2.878136   -0.098617
 H         -2.091803    3.272592   -0.139752
 C         -5.101568    1.774737   -0.079657
 H         -4.581974    3.895461   -0.093877
 C         -6.521026    1.806263   -0.053059
 C         -7.299073    3.032759   -0.041375
 C         -7.326753    0.627942   -0.035192
 C         -8.763279    3.020404   -0.014117
 N         -6.782715    4.258321   -0.053790
 C         -8.698396    0.616288   -0.009386
 F         -6.721427   -0.579909   -0.043693
 C         -9.522193    1.781149    0.002546
 N         -9.300783    4.236587   -0.006835
 S         -8.051667    5.338720   -0.032593
 F         -9.283768   -0.602120    0.004983
 C        -10.942025    1.727905    0.027574
 S        -11.861844    0.210903    0.046683
 C        -11.840761    2.815352    0.040141
 C        -13.405657    1.057393    0.070654
 C        -13.178049    2.442118    0.063519
 H        -11.496614    3.838893    0.031655
 C        -14.696228    0.404820    0.094144
 H        -13.976349    3.174200    0.074869
 C        -14.865409   -1.011715    0.098181
 C        -15.879828    1.178884    0.113979
 C        -16.131743   -1.576342    0.120935
 O        -13.721951   -1.746731    0.077638
 C        -17.145633    0.612413    0.136376
 H        -15.795209    2.255825    0.111766
 C        -17.312473   -0.802058    0.141530
 H        -16.216990   -2.653240    0.120927
 C        -13.794284   -3.169429    0.081611
 O        -18.289740    1.344644    0.155055
 C        -18.609889   -1.460202    0.166704
 H        -14.289551   -3.537331    0.987873
 H        -14.321059   -3.540710   -0.805279
 H        -12.760561   -3.515561    0.064059
 C        -18.223769    2.768094    0.149194
 C        -18.823929   -2.843731    0.188912
 S        -20.146048   -0.607287    0.170428
 H        -17.699170    3.142393    1.036042
 H        -17.729224    3.136484   -0.757194
 H        -19.259498    3.107825    0.165435
 C        -20.170529   -3.202898    0.206919
 H        -18.025939   -3.575464    0.193712
 C        -21.050867   -2.116121    0.199619
 H        -20.522491   -4.229308    0.225741
 C         22.436600    2.404902    0.081366
 C         23.487861    1.573987    0.360227
 H         22.738653    3.442956   -0.072964
 C         23.541311    0.124851    0.632219
 C         24.872989    2.109391    0.429256
 O         22.615089   -0.680992    0.668377
 C         24.981877   -0.207710    0.866615
 C         25.761511    0.951620    0.748360
 O         25.227803    3.270419    0.259804
 C         25.561479   -1.437402    1.161579
 C         27.141196    0.912811    0.921900
 C         26.948521   -1.482033    1.336893
 H         24.949854   -2.330146    1.251353
 C         27.728849   -0.321366    1.218567
 H         27.736728    1.816027    0.828497
 H         27.431914   -2.427075    1.568080
 H         28.804015   -0.385938    1.359970
 C        -22.461499   -2.285160    0.216093
 C        -23.521665   -1.418022    0.214206
 H        -22.764937   -3.333961    0.233938
 C        -23.577224    0.055722    0.193528
 C        -24.915381   -1.933693    0.235350
 O        -22.645466    0.856045    0.172586
 C        -25.028210    0.423666    0.202739
 C        -25.811739   -0.738756    0.227308
 O        -25.271519   -3.106680    0.255497
 C        -25.613413    1.685414    0.190508
 C        -27.200954   -0.671191    0.240393
 C        -27.010346    1.759268    0.203568
 H        -24.998297    2.580024    0.171459
 C        -27.794510    0.595493    0.228237
 H        -27.798821   -1.577504    0.259387
 H        -27.498412    2.729799    0.194562
 H        -28.877278    0.683162    0.237953
       152
S1: Total Energy = -7632.17531046
 C          6.525823   -1.855981   -0.287650
 C          7.309536   -3.075032   -0.264956
 N          6.801563   -4.307752   -0.264983
 S          8.069551   -5.366545   -0.233161
 N          9.310014   -4.276910   -0.218149
 C          8.772332   -3.056522   -0.237685
 C          9.527920   -1.819374   -0.233351
 C          8.711839   -0.683332   -0.260552
 C          7.315293   -0.700490   -0.285823
 F          9.270135    0.545851   -0.261942
 F          6.726868    0.513547   -0.307694
 C         10.966357   -1.765905   -0.200272
 C         11.859389   -2.840670   -0.166842
 C         13.203030   -2.458354   -0.135309
 C         13.418590   -1.079058   -0.143261
 S         11.870719   -0.247553   -0.198516
 H         11.525944   -3.867985   -0.167156
 H         14.004842   -3.186434   -0.112585
 C         14.706535   -0.410534   -0.102025
 C         15.890522   -1.171048    0.018277
 C         14.865672    1.003200   -0.175396
 C         17.152042   -0.593765    0.058146
 H         15.811077   -2.246109    0.089380
 C         16.127007    1.579603   -0.137906
 C         17.310859    0.818440   -0.024388
 H         16.205252    2.655761   -0.191064
 O         13.718043    1.726669   -0.280983
 O         18.297363   -1.314823    0.177973
 C         18.602816    1.486821    0.004437
 C         18.813712    2.865030   -0.127158
 S         20.135880    0.655924    0.222709
 C         20.154374    3.237645   -0.050751
 H         18.017209    3.582429   -0.280123
 C         21.034562    2.167247    0.142090
 H         20.503163    4.262063   -0.132860
 C         18.237227   -2.735000    0.275428
 H         17.674943   -3.046443    1.163577
 H         17.785255   -3.173721   -0.621899
 H         19.272490   -3.065206    0.362837
 C         13.782999    3.146934   -0.363982
 H         14.240722    3.575740    0.535352
 H         14.342029    3.466055   -1.251629
 H         12.749043    3.483928   -0.443111
 C          5.087366   -1.835064   -0.306479
 S          4.149367   -0.339398   -0.317806
 C          4.219184   -2.935572   -0.313696
 C          2.617194   -1.209917   -0.328673
 C          2.870632   -2.589222   -0.325957
 H          4.581143   -3.953062   -0.308835
 C          1.320920   -0.584177   -0.334909
 H          2.087420   -3.337367   -0.332130
 C          1.123650    0.835386   -0.336934
 C          0.147766   -1.378719   -0.336526
 C         -0.147833    1.379361   -0.336645
 O          2.254965    1.583258   -0.338096
 C         -1.123715   -0.834745   -0.336894
 H          0.251419   -2.453855   -0.335956
 C         -1.320986    0.584816   -0.334990
 H         -0.251486    2.454497   -0.336175
 C          2.165859    3.006447   -0.337128
 O         -2.255033   -1.582616   -0.337998
 C         -2.617274    1.210535   -0.328866
 H          1.649485    3.368318   -1.233548
 H          1.650472    3.367224    0.560297
 H          3.195605    3.363988   -0.337497
 C         -2.165924   -3.005805   -0.337185
 C         -2.870757    2.589831   -0.326251
 S         -4.149415    0.339966   -0.318023
 H         -1.649477   -3.367571   -1.233605
 H         -1.650607   -3.366686    0.560240
 H         -3.195669   -3.363349   -0.337670
 C         -4.219325    2.936135   -0.314060
 H         -2.087572    3.338003   -0.332429
 C         -5.087466    1.835598   -0.306790
 H         -4.581316    3.953614   -0.309285
 C         -6.525927    1.856455   -0.288020
 C         -7.309708    3.075474   -0.265743
 C         -7.315337    0.700934   -0.285878
 C         -8.772507    3.056894   -0.238573
 N         -6.801805    4.308220   -0.266103
 C         -8.711889    0.683711   -0.260674
 F         -6.726858   -0.513082   -0.307319
 C         -9.528032    1.819711   -0.233941
 N         -9.310250    4.277262   -0.219448
 S         -8.069846    5.366946   -0.234675
 F         -9.270110   -0.545504   -0.261704
 C        -10.966477    1.766170   -0.201033
 S        -11.870742    0.247763   -0.199122
 C        -11.859578    2.840884   -0.168033
 C        -13.418665    1.079178   -0.144285
 C        -13.203208    2.458485   -0.136649
 H        -11.526204    3.868222   -0.168576
 C        -14.706572    0.410569   -0.102958
 H        -14.005085    3.186509   -0.114355
 C        -14.865653   -1.003137   -0.176914
 C        -15.890552    1.170981    0.017996
 C        -16.126964   -1.579603   -0.139522
 O        -13.718006   -1.726519   -0.282931
 C        -17.152049    0.593629    0.057810
 H        -15.811112    2.246000    0.089754
 C        -17.310822   -0.818531   -0.025478
 H        -16.205186   -2.655740   -0.193117
 C        -13.782943   -3.146735   -0.366804
 O        -18.297376    1.314567    0.178298
 C        -18.602759   -1.486972    0.003097
 H        -14.240535   -3.576114    0.532324
 H        -14.342086   -3.465312   -1.254574
 H        -12.748991   -3.483657   -0.446277
 C        -18.237286    2.734693    0.276527
 C        -18.813660   -2.865055   -0.129757
 S        -20.135766   -0.656318    0.222648
 H        -17.674822    3.045672    1.164724
 H        -17.785531    3.173932   -0.620655
 H        -19.272544    3.064802    0.364348
 C        -20.154285   -3.237785   -0.053203
 H        -18.017196   -3.582273   -0.283776
 C        -21.034430   -2.167596    0.140964
 H        -20.503076   -4.262133   -0.136177
 C         22.438687    2.349963    0.245682
 C         23.496268    1.497856    0.432688
 H         22.740478    3.395831    0.159179
 C         23.551947    0.034230    0.598006
 C         24.882914    2.025074    0.500814
 O         22.624332   -0.771888    0.602374
 C         24.997678   -0.317225    0.767625
 C         25.777486    0.846665    0.710533
 O         25.237067    3.195482    0.405933
 C         25.581346   -1.565239    0.957834
 C         27.161113    0.793975    0.841759
 C         26.973031   -1.624102    1.090472
 H         24.969787   -2.461518    1.001131
 C         27.753292   -0.459199    1.033088
 H         27.756636    1.700926    0.796206
 H         27.459485   -2.583923    1.240138
 H         28.831841   -0.534796    1.139146
 C        -22.438513   -2.350448    0.244901
 C        -23.496069   -1.498534    0.432889
 H        -22.740288   -3.396266    0.157723
 C        -23.551782   -0.035022    0.599209
 C        -24.882665   -2.025878    0.501096
 O        -22.624214    0.771146    0.603794
 C        -24.997477    0.316231    0.769532
 C        -25.777235   -0.847666    0.711916
 O        -25.236776   -3.196246    0.405566
 C        -25.581157    1.564084    0.960764
 C        -27.160822   -0.795148    0.843638
 C        -26.972801    1.622775    1.093898
 H        -24.969639    2.460370    1.004461
 C        -27.753012    0.457863    1.035999
 H        -27.756307   -1.702103    0.797681
 H        -27.459262    2.582468    1.244364
 H        -28.831531    0.533325    1.142465
