       138
S0: Total Energy = -6777.69786460
 C          8.850755   -1.257496   -0.127083
 C          8.346021    0.012055   -0.011497
 C          6.916130    0.066520   -0.028250
 C          6.335168   -1.231575   -0.150874
 S          7.579265   -2.476660   -0.263483
 H          8.979176    0.882954    0.094998
 C          6.085210    1.208109    0.110512
 C          2.192168    0.996302    0.106515
 C          2.696788   -0.273574   -0.007507
 C          4.126658   -0.328108    0.008581
 C          4.707712    0.970095    0.130176
 S          3.463906    2.215446    0.241667
 H          2.063452   -1.144447   -0.113241
 C          4.957646   -1.469680   -0.130698
 C          6.623268    2.573713    0.229482
 C          6.366084    3.507491    1.203956
 C          7.019100    4.756901    0.987011
 C          7.774733    4.796154   -0.154828
 S          7.687551    3.262983   -0.991893
 H          5.742515    3.297644    2.066372
 H          6.935665    5.602292    1.662574
 C          4.419647   -2.835279   -0.249713
 C          4.676971   -3.769065   -1.224153
 C          4.024071   -5.018526   -1.007199
 C          3.268405   -5.057835    0.134619
 S          3.355403   -3.524631    0.971648
 H          5.300512   -3.559182   -2.086580
 H          4.107615   -5.863926   -1.682734
 C          2.453655   -6.194699    0.676046
 H          1.391320   -5.935093    0.757412
 H          2.539313   -7.058268    0.009514
 H          2.792849   -6.502844    1.672270
 C          8.589625    5.932939   -0.696217
 H          8.503999    6.796527   -0.029702
 H          9.651943    5.673225   -0.777500
 H          8.250530    6.241108   -1.692470
 C         10.230501   -1.650245   -0.143759
 C         10.870880   -2.870871   -0.246748
 C         12.257551   -2.614098   -0.204517
 H         10.390534   -3.834917   -0.340539
 C         12.401773   -1.243414   -0.075976
 H         13.077707   -3.317601   -0.258366
 C         13.579851   -0.445850    0.015801
 C         14.895970   -0.901460   -0.012572
 N         13.620781    0.938680    0.151240
 C         15.690647   -2.103075   -0.120699
 C         15.766637    0.211226    0.106645
 C         14.972616    1.413635    0.214465
 C         12.502646    1.866408    0.233480
 N         17.043150   -1.626700   -0.058183
 O         15.401089   -3.293252   -0.240274
 C         17.082247   -0.243996    0.077840
 O         15.263201    2.603529    0.334638
 H         12.938726    2.861007    0.337701
 H         11.872971    1.650398    1.100745
 H         11.889695    1.828105   -0.670931
 C         18.162185   -2.554229   -0.136288
 C         18.264369    0.554810    0.170963
 H         17.727256   -3.549374   -0.239574
 H         18.794057   -2.338408   -1.001732
 H         18.772912   -2.513066    0.769307
 C         18.411595    1.920270    0.307980
 H         17.594277    2.626362    0.368336
 C         19.810177    2.171609    0.349600
 C         20.423689    0.955707    0.236526
 H         20.299995    3.129764    0.450384
 H         21.456155    0.641267    0.217865
 C          0.812948    1.389837    0.122724
 C          0.174142    2.612785    0.210303
 C         -1.359100    0.984685    0.068034
 C         -1.212564    2.357370    0.176067
 H          0.656066    3.577462    0.288195
 C         -2.538043    0.188028   -0.005345
 H         -2.031854    3.062457    0.221995
 C         -3.854430    0.646784    0.019704
 N         -2.582766   -1.198511   -0.113785
 C         -4.726628   -0.464936   -0.073175
 C         -4.645929    1.853025    0.108109
 C         -3.935552   -1.671139   -0.160786
 C         -1.466981   -2.130328   -0.181395
 C         -6.043289   -0.006036   -0.046579
 N         -5.998580    1.380461    0.061299
 O         -4.351031    3.044229    0.203208
 O         -4.230297   -2.862556   -0.255473
 H         -1.905480   -3.125934   -0.263299
 H         -0.840514   -1.933505   -1.055508
 H         -0.850316   -2.074594    0.719562
 C         -7.222386   -0.802410   -0.115253
 C         -7.114430    2.312351    0.129322
 C         -7.370091   -2.175311   -0.216581
 H         -6.676009    3.308036    0.210467
 H         -7.740277    2.115784    1.003880
 H         -7.731648    2.256012   -0.771185
 C         -9.394930   -1.206687   -0.158673
 C         -8.757310   -2.430270   -0.243341
 H         -6.551317   -2.881004   -0.262928
 C        -10.774683   -0.811941   -0.138216
 H         -9.240169   -3.394917   -0.315074
 C        -11.276704    0.459332   -0.044840
 S        -12.048478   -2.033160   -0.236538
 C        -12.708652    0.515499   -0.048559
 H        -10.641531    1.331405    0.037275
 C        -13.290609   -0.784403   -0.136601
 C        -13.537402    1.658420    0.073635
 C        -14.668467   -1.020620   -0.096086
 C        -14.917839    1.421359    0.114054
 C        -12.997657    3.025831    0.155927
 C        -15.497259    0.121228    0.028477
 C        -15.205967   -2.390108   -0.180125
 S        -16.169098    2.661611    0.208797
 C        -13.256203    3.987528    1.102459
 S        -11.929357    3.680027   -1.081729
 C        -16.937670    0.178428    0.032330
 C        -14.969936   -3.339517   -1.144408
 S        -16.240228   -3.059957    1.076681
 C        -17.420524    1.443254    0.122914
 C        -12.600740    5.229425    0.852580
 H        -13.883516    3.803258    1.967882
 C        -11.842056    5.235977   -0.287882
 H        -17.570837   -0.696825   -0.040839
 C        -15.615846   -4.586229   -0.891624
 H        -14.366116   -3.143309   -2.023961
 C        -16.344938   -4.607127    0.267684
 H        -18.458020    1.751060    0.144986
 H        -12.685030    6.093553    1.503990
 C        -11.023953    6.356035   -0.858514
 H        -15.546504   -5.442800   -1.554687
 C        -17.146821   -5.735058    0.845893
 H        -11.108826    7.237559   -0.215790
 H         -9.961967    6.092242   -0.931010
 H        -11.360675    6.637909   -1.863354
 H        -18.206920   -5.473445    0.948187
 H        -17.077168   -6.609064    0.191113
 H        -16.784487   -6.028027    1.838592
 O         19.504508   -0.039117    0.126998
 O         11.161625   -0.653276   -0.039520
 O         -8.461889   -0.209661   -0.080720
 O         -0.119645    0.392541    0.035876
       138
T1: Total Energy = -6777.66524404
 C         -8.870941   -1.265095    0.121460
 C         -8.357245    0.002875    0.007530
 C         -6.929492    0.048941    0.023251
 C         -6.354362   -1.252501    0.142596
 S         -7.605549   -2.491068    0.253922
 H         -8.985538    0.877575   -0.096978
 C         -6.090940    1.188020   -0.114588
 C         -2.197205    0.960605   -0.117356
 C         -2.715223   -0.312923   -0.002949
 C         -4.139632   -0.358766   -0.018387
 C         -4.716967    0.944303   -0.137423
 S         -3.467902    2.185973   -0.250850
 H         -2.085720   -1.186184    0.104215
 C         -4.978738   -1.497777    0.119699
 C         -6.624129    2.555989   -0.229633
 C         -6.369022    3.489670   -1.204587
 C         -7.015746    4.741586   -0.982664
 C         -7.764766    4.782720    0.163403
 S         -7.678819    3.248351    0.998552
 H         -5.750889    3.278182   -2.070513
 H         -6.932771    5.587316   -1.657886
 C         -4.447540   -2.865687    0.234363
 C         -4.716666   -3.804785    1.200752
 C         -4.069713   -5.056575    0.980112
 C         -3.306350   -5.092887   -0.156684
 S         -3.378214   -3.553787   -0.984177
 H         -5.344548   -3.596944    2.060500
 H         -4.162824   -5.905798    1.649592
 C         -2.494283   -6.230985   -0.699534
 H         -1.429783   -5.977281   -0.771067
 H         -2.590204   -7.098523   -0.039563
 H         -2.827581   -6.530423   -1.700399
 C         -8.572581    5.922007    0.710158
 H         -8.486993    6.786064    0.044222
 H         -9.635494    5.666296    0.796410
 H         -8.227446    6.227750    1.705090
 C        -10.251448   -1.648625    0.139289
 C        -10.899604   -2.866439    0.240996
 C        -12.283873   -2.601830    0.201411
 H        -10.424509   -3.833332    0.332309
 C        -12.421103   -1.229416    0.075619
 H        -13.108068   -3.300643    0.255158
 C        -13.594534   -0.426376   -0.012563
 C        -14.913559   -0.875450    0.017013
 N        -13.629261    0.958870   -0.145059
 C        -15.714031   -2.073148    0.124093
 C        -15.778532    0.241678   -0.098332
 C        -14.978496    1.440434   -0.204968
 C        -12.506637    1.881125   -0.227304
 N        -17.064176   -1.589870    0.065015
 O        -15.430314   -3.265235    0.240718
 C        -17.096699   -0.206705   -0.068085
 O        -15.263690    2.631993   -0.322148
 H        -12.937790    2.878157   -0.328738
 H        -11.879499    1.663690   -1.096057
 H        -11.892296    1.837836    0.675948
 C        -18.187672   -2.511927    0.143064
 C        -18.274816    0.598290   -0.157348
 H        -17.757559   -3.509475    0.243332
 H        -18.816941   -2.294900    1.010116
 H        -18.799869   -2.465669   -0.761308
 C        -18.415493    1.964789   -0.291412
 H        -17.594739    2.666850   -0.351946
 C        -19.812887    2.223216   -0.329822
 C        -20.432345    1.010244   -0.217939
 H        -20.298055    3.184036   -0.427785
 H        -21.466330    0.700941   -0.197888
 C         -0.827906    1.337444   -0.133182
 C         -0.173349    2.565169   -0.224681
 C          1.351998    0.920334   -0.074848
 C          1.197969    2.313222   -0.189171
 H         -0.655126    3.529978   -0.306310
 C          2.510091    0.145158    0.000535
 H          2.018475    3.016540   -0.236544
 C          3.865738    0.617777   -0.024717
 N          2.592609   -1.240110    0.113305
 C          4.724676   -0.460282    0.069873
 C          4.651737    1.841102   -0.116105
 C          3.938120   -1.684631    0.161508
 C          1.490215   -2.188588    0.183238
 C          6.078984    0.011039    0.044057
 N          5.997945    1.395407   -0.067613
 O          4.325760    3.026216   -0.214708
 O          4.265687   -2.868721    0.260244
 H          1.938927   -3.179031    0.267753
 H          0.861920   -1.993836    1.056271
 H          0.873989   -2.139119   -0.718162
 C          7.239233   -0.766075    0.115256
 C          7.100483    2.343874   -0.137330
 C          7.395426   -2.156713    0.222567
 H          6.651571    3.334304   -0.220859
 H          7.728402    2.149787   -1.010737
 H          7.717052    2.293633    0.763766
 C          9.419244   -1.178409    0.163089
 C          8.770114   -2.406377    0.251102
 H          6.577016   -2.862337    0.270115
 C         10.790528   -0.794999    0.143742
 H          9.254194   -3.370477    0.326401
 C         11.301088    0.479417    0.045583
 S         12.064994   -2.018814    0.248799
 C         12.729461    0.530735    0.051511
 H         10.667772    1.352016   -0.042831
 C         13.309621   -0.771528    0.144367
 C         13.563002    1.671945   -0.073145
 C         14.685418   -1.010707    0.105213
 C         14.942847    1.430642   -0.111807
 C         13.027458    3.040111   -0.159210
 C         15.518565    0.129428   -0.022009
 C         15.220425   -2.381006    0.193533
 S         16.198391    2.666814   -0.207675
 C         13.298120    4.002556   -1.101901
 S         11.949376    3.696895    1.069236
 C         16.958284    0.181854   -0.023852
 C         14.985263   -3.326113    1.162136
 S         16.250427   -3.057664   -1.063234
 C         17.445907    1.445210   -0.117048
 C         12.644921    5.246384   -0.856521
 H         13.932438    3.817213   -1.961946
 C         11.875559    5.254170    0.276801
 H         17.588469   -0.695299    0.052547
 C         15.628258   -4.575053    0.912618
 H         14.383771   -3.125317    2.042250
 C         16.354422   -4.601854   -0.248377
 H         18.484420    1.749521   -0.138619
 H         12.738369    6.111017   -1.506018
 C         11.056233    6.376528    0.841082
 H         15.559033   -5.428889    1.579223
 C         17.152942   -5.733480   -0.824037
 H         11.150539    7.258589    0.200407
 H          9.992603    6.116649    0.903116
 H         11.384362    6.655846    1.849477
 H         18.213156   -5.473967   -0.930438
 H         17.083819   -6.604596   -0.165345
 H         16.787384   -6.030142   -1.814463
 O        -19.517894    0.010541   -0.112129
 O        -11.177505   -0.646145    0.038359
 O          8.483447   -0.175502    0.080636
 O          0.106116    0.332332   -0.041860
       138
S1: Total Energy = -6777.63879995
 C         -8.856805   -1.270222    0.113907
 C         -8.332039    0.008124    0.002416
 C         -6.918793    0.054776    0.022895
 C         -6.334233   -1.250540    0.137459
 S         -7.585720   -2.493277    0.244710
 H         -8.962490    0.880536   -0.106854
 C         -6.076893    1.203404   -0.111777
 C         -2.186081    0.989220   -0.116300
 C         -2.710693   -0.292779   -0.003086
 C         -4.121322   -0.341896   -0.025769
 C         -4.707719    0.963805   -0.140347
 S         -3.460625    2.210076   -0.250770
 H         -2.077659   -1.162830    0.110017
 C         -4.964391   -1.491955    0.108407
 C         -6.616846    2.567522   -0.217272
 C         -6.349489    3.517655   -1.173656
 C         -7.004350    4.763608   -0.944186
 C         -7.773414    4.784740    0.189158
 S         -7.696778    3.238553    1.002903
 H         -5.717802    3.321163   -2.033297
 H         -6.913819    5.619313   -1.605760
 C         -4.425330   -2.855039    0.211997
 C         -4.718663   -3.818142    1.148552
 C         -4.057275   -5.060514    0.921969
 C         -3.256758   -5.067572   -0.189864
 S         -3.310986   -3.511661   -0.986111
 H         -5.372782   -3.632691    1.993634
 H         -4.166179   -5.924473    1.569891
 C         -2.419548   -6.188554   -0.729693
 H         -1.356226   -5.923185   -0.769479
 H         -2.523594   -7.067710   -0.086602
 H         -2.723763   -6.474664   -1.743677
 C         -8.596258    5.912267    0.737686
 H         -8.504627    6.785667    0.084876
 H         -9.658971    5.649605    0.803083
 H         -8.269249    6.206435    1.742207
 C        -10.223684   -1.641338    0.128452
 C        -10.883668   -2.866016    0.222504
 C        -12.256580   -2.602618    0.185156
 H        -10.408263   -3.833567    0.307383
 C        -12.399357   -1.219067    0.067491
 H        -13.082359   -3.300194    0.234301
 C        -13.567192   -0.429714   -0.013981
 C        -14.894717   -0.887523    0.012129
 N        -13.618947    0.958943   -0.136150
 C        -15.688321   -2.090804    0.110444
 C        -15.761081    0.220269   -0.094145
 C        -14.967179    1.427440   -0.191805
 C        -12.503793    1.890134   -0.212009
 N        -17.040591   -1.616533    0.055280
 O        -15.396710   -3.283785    0.218260
 C        -17.085106   -0.233588   -0.067368
 O        -15.266247    2.617370   -0.299870
 H        -12.941625    2.885124   -0.304541
 H        -11.875889    1.684206   -1.083161
 H        -11.887597    1.843229    0.689933
 C        -18.157291   -2.546856    0.126406
 C        -18.262552    0.565254   -0.150392
 H        -17.720564   -3.542343    0.218336
 H        -18.787822   -2.340765    0.995337
 H        -18.770559   -2.496904   -0.777161
 C        -18.411312    1.934789   -0.274745
 H        -17.593776    2.640920   -0.330448
 C        -19.808812    2.185834   -0.310782
 C        -20.423863    0.969050   -0.207559
 H        -20.298811    3.145030   -0.401614
 H        -21.456516    0.655216   -0.189502
 C         -0.823699    1.357844   -0.129159
 C         -0.163909    2.588474   -0.221333
 C          1.354569    0.941714   -0.068498
 C          1.204514    2.330851   -0.184087
 H         -0.643598    3.553987   -0.304546
 C          2.519852    0.163147    0.008927
 H          2.028556    3.030824   -0.231589
 C          3.854229    0.632823   -0.017679
 N          2.587653   -1.223414    0.124975
 C          4.723253   -0.459716    0.080597
 C          4.637926    1.848231   -0.112671
 C          3.938516   -1.677393    0.174956
 C          1.480877   -2.165814    0.198595
 C          6.055841    0.007048    0.052457
 N          5.991255    1.391169   -0.063000
 O          4.328137    3.035984   -0.214425
 O          4.253083   -2.863008    0.276648
 H          1.926759   -3.157491    0.285971
 H          0.853536   -1.967858    1.071770
 H          0.863608   -2.118945   -0.702392
 C          7.224092   -0.777352    0.126161
 C          7.098159    2.333325   -0.136671
 C          7.376164   -2.161537    0.237670
 H          6.651805    3.325100   -0.220873
 H          7.723842    2.137532   -1.011586
 H          7.717169    2.284340    0.763044
 C          9.400726   -1.186670    0.174249
 C          8.752303   -2.414639    0.266897
 H          6.555730   -2.865258    0.287751
 C         10.771054   -0.804864    0.152911
 H          9.235300   -3.378942    0.345193
 C         11.281467    0.471507    0.045631
 S         12.046422   -2.025667    0.265807
 C         12.705633    0.525119    0.052066
 H         10.645700    1.341463   -0.051150
 C         13.288801   -0.777386    0.151712
 C         13.539181    1.669307   -0.081102
 C         14.663322   -1.015255    0.110004
 C         14.918456    1.427470   -0.122366
 C         13.002612    3.034750   -0.172906
 C         15.495366    0.126475   -0.026177
 C         15.200539   -2.383855    0.205291
 S         16.174779    2.663214   -0.223975
 C         13.294976    4.003235   -1.104180
 S         11.892875    3.684743    1.031804
 C         16.933411    0.178992   -0.029078
 C         14.967003   -3.323960    1.179362
 S         16.230837   -3.065895   -1.048308
 C         17.421353    1.442812   -0.128786
 C         12.634287    5.244198   -0.869002
 H         13.948266    3.822862   -1.950892
 C         11.837046    5.245337    0.245379
 H         17.563990   -0.697423    0.051832
 C         15.611392   -4.573288    0.936264
 H         14.366315   -3.119028    2.059084
 C         16.336933   -4.605428   -0.225064
 H         18.459971    1.746616   -0.152545
 H         12.742067    6.112029   -1.511920
 C         11.002925    6.363901    0.794901
 H         15.543783   -5.423542    1.607550
 C         17.136195   -5.739231   -0.795296
 H         11.109453    7.248238    0.159412
 H          9.938874    6.101199    0.832333
 H         11.307963    6.640316    1.811304
 H         18.196027   -5.479109   -0.903770
 H         17.068349   -6.606910   -0.131995
 H         16.770180   -6.041337   -1.783887
 O        -19.504387   -0.028037   -0.109179
 O        -11.154045   -0.635483    0.034108
 O          8.466378   -0.187001    0.088878
 O          0.109430    0.354183   -0.036081
