       138
S0: Total Energy = -6513.57877190
 C         -8.730537   -0.320479    0.049298
 C         -7.930393    0.791084   -0.051115
 C         -6.528529    0.512952   -0.012027
 C         -6.269298   -0.885489    0.112617
 S         -7.769353   -1.803446    0.202164
 H         -8.327967    1.791697   -0.171740
 C         -5.452795    1.430978   -0.133540
 C         -1.706615    0.314243   -0.069688
 C         -2.507077   -0.797229    0.031027
 C         -3.908761   -0.519016   -0.008536
 C         -4.167965    0.879434   -0.133587
 S         -2.667789    1.797313   -0.223000
 H         -2.109722   -1.797944    0.151480
 C         -4.984483   -1.437080    0.112573
 C         -5.657552    2.883985   -0.256369
 C         -5.169061    3.733305   -1.220245
 C         -5.521767    5.099643   -1.011593
 C         -6.275002    5.311480    0.113275
 S         -6.561662    3.800206    0.943754
 H         -4.590881    3.385405   -2.069440
 H         -5.229787    5.902964   -1.680471
 C         -4.779722   -2.890093    0.235021
 C         -5.268486   -3.739768    1.198462
 C         -4.915648   -5.106009    0.989455
 C         -4.162051   -5.317421   -0.135259
 S         -3.875183   -3.805866   -0.965126
 H         -5.846908   -3.392185    2.047622
 H         -5.207774   -5.909573    1.657975
 C         -3.616528   -6.611007   -0.664035
 H         -2.521597   -6.598677   -0.725530
 H         -3.907547   -7.431380   -0.000840
 H         -3.998517   -6.836525   -1.666956
 C         -6.820268    6.605288    0.641778
 H         -6.529453    7.425399   -0.021832
 H         -7.915181    6.593052    0.703682
 H         -6.437887    6.831173    1.644469
 C        -10.166177   -0.392509    0.042560
 C        -10.966878   -1.517380    0.052686
 C        -12.361289   -1.304493    0.040851
 H        -10.544906   -2.517865    0.061626
 C        -12.788077    0.014517    0.021267
 H        -13.079311   -2.119865    0.043065
 C        -14.162372    0.417862    0.003274
 C        -15.288753   -0.414902    0.001308
 N        -14.638725    1.728509   -0.015168
 C        -15.683182   -1.803539    0.011514
 C        -16.463401    0.382538   -0.018568
 C        -16.069655    1.771810   -0.029407
 C        -13.884570    2.969664   -0.018650
 N        -17.115339   -1.759204   -0.003547
 O        -15.053506   -2.862646    0.028938
 C        -17.589292   -0.449655   -0.021557
 O        -16.700469    2.830269   -0.046412
 H        -14.622265    3.773754   -0.031882
 H        -13.254842    3.055199   -0.909851
 H        -13.271135    3.069693    0.882400
 C        -17.869858   -3.000180   -0.000138
 C        -18.968047   -0.045717   -0.039418
 H        -17.132685   -3.804602    0.014602
 H        -18.501210   -3.083980    0.890018
 H        -18.482724   -3.099844   -0.901514
 C        -19.394826    1.269544   -0.056903
 H        -18.678043    2.085982   -0.057971
 C        -20.802098    1.475312   -0.072925
 C        -21.563555    0.342569   -0.068988
 H        -21.241080    2.467865   -0.087329
 H        -22.642905    0.267409   -0.078917
 C         -0.271260    0.385535   -0.062425
 C          0.530563    1.509788   -0.085062
 C          2.350595   -0.023089   -0.032454
 C          1.924436    1.296315   -0.068823
 H          0.109264    2.510360   -0.107382
 C          3.723483   -0.427499   -0.007446
 H          2.643181    2.110980   -0.080442
 C          4.852032    0.404396   -0.015026
 N          4.198941   -1.737925    0.029390
 C          6.024307   -0.392910    0.017374
 C          5.247424    1.793519   -0.044358
 C          5.629267   -1.781855    0.046453
 C          3.443999   -2.978545    0.048402
 C          7.153053    0.439261    0.009817
 N          6.677670    1.749581   -0.027538
 O          4.616611    2.851655   -0.076712
 O          6.260056   -2.840142    0.079095
 H          4.181065   -3.782877    0.074380
 H          2.812256   -3.051233    0.939279
 H          2.832552   -3.090518   -0.852576
 C          8.525893    0.035371    0.036375
 C          7.432740    2.990190   -0.046247
 C          8.952109   -1.283714    0.076165
 H          6.695874    3.794680   -0.072322
 H          8.064717    3.062708   -0.936942
 H          8.044048    3.101821    0.854838
 C         11.147846   -0.373256    0.069298
 C         10.346320   -1.497249    0.094281
 H          8.233400   -2.098453    0.088452
 C         12.584166   -0.301517    0.078476
 H         10.767892   -2.497623    0.118494
 C         13.383729    0.806622   -0.044720
 S         13.544930   -1.781256    0.267841
 C         14.787664    0.529514    0.004474
 H         12.986216    1.804052   -0.189701
 C         15.045733   -0.865351    0.160415
 C         15.863139    1.442351   -0.134573
 C         16.331351   -1.416837    0.175911
 C         17.150528    0.889073   -0.118865
 C         15.659970    2.892198   -0.290596
 C         17.407223   -0.505357    0.037009
 C         16.532333   -2.868298    0.331866
 S         18.658222    1.798387   -0.218387
 C         16.161959    3.721773   -1.264669
 S         14.739064    3.833737    0.877195
 C         18.820906   -0.784390    0.081117
 C         16.048382   -3.693261    1.318515
 S         17.425611   -3.814585   -0.852163
 C         19.587908    0.328778   -0.041786
 C         15.806011    5.092005   -1.090041
 H         16.752901    3.356291   -2.097446
 C         15.037030    5.327449    0.019375
 H         19.230405   -1.778263    0.210308
 C         16.395829   -5.065508    1.139512
 H         15.476179   -3.323788    2.162681
 C         17.140692   -5.305696    0.014934
 H         20.668864    0.385531   -0.039646
 H         16.107162    5.881140   -1.771690
 C         14.483868    6.631927    0.512347
 H         16.106097   -5.852169    1.828955
 C         17.679560   -6.613015   -0.486393
 H         14.783488    7.437905   -0.164592
 H         13.388172    6.620388    0.559192
 H         14.851954    6.879742    1.515270
 H         18.773954   -6.604270   -0.557870
 H         17.393305   -7.416250    0.199550
 H         17.288360   -6.863045   -1.479994
Se         10.066407    1.217618    0.023354
Se          0.810698   -1.205490   -0.020447
Se        -11.249251    1.198055    0.021856
Se        -20.510652   -1.230585   -0.042688
       138
T1: Total Energy = -6513.54999487
 C         -8.730500   -0.331681    0.048958
 C         -7.924070    0.778212   -0.047322
 C         -6.526010    0.495344   -0.008881
 C         -6.270178   -0.904724    0.110900
 S         -7.773691   -1.818164    0.195941
 H         -8.318077    1.780710   -0.164311
 C         -5.445357    1.411760   -0.127969
 C         -1.699025    0.288028   -0.070620
 C         -2.511990   -0.825790    0.030689
 C         -3.906513   -0.543361   -0.008600
 C         -4.164149    0.858599   -0.130994
 S         -2.661852    1.775317   -0.220090
 H         -2.116725   -1.827457    0.148741
 C         -4.987709   -1.459812    0.108830
 C         -5.648423    2.865616   -0.245631
 C         -5.165235    3.717042   -1.210121
 C         -5.514131    5.083441   -0.994816
 C         -6.259430    5.293064    0.135683
 S         -6.543073    3.779657    0.963425
 H         -4.592931    3.370668   -2.063913
 H         -5.225288    5.888369   -1.663150
 C         -4.786738   -2.913180    0.225083
 C         -5.287039   -3.767611    1.178679
 C         -4.937005   -5.133622    0.964489
 C         -4.173768   -5.340664   -0.154578
 S         -3.873669   -3.825200   -0.972268
 H         -5.871657   -3.423415    2.024950
 H         -5.237840   -5.940238    1.625434
 C         -3.627559   -6.632835   -0.686070
 H         -2.532057   -6.623720   -0.737320
 H         -3.927438   -7.456294   -0.030675
 H         -4.000839   -6.851008   -1.693891
 C         -6.799093    6.586128    0.671742
 H         -6.511660    7.407783    0.008548
 H         -7.893574    6.575372    0.741245
 H         -6.409448    6.808546    1.672420
 C        -10.164203   -0.397094    0.041851
 C        -10.971237   -1.518999    0.055024
 C        -12.363449   -1.300088    0.041703
 H        -10.553563   -2.521253    0.067597
 C        -12.785414    0.021462    0.017938
 H        -13.085186   -2.112194    0.045846
 C        -14.156899    0.429827   -0.002090
 C        -15.287434   -0.398604   -0.003837
 N        -14.628594    1.742462   -0.023300
 C        -15.687519   -1.785487    0.007917
 C        -16.458412    0.403484   -0.026446
 C        -16.058893    1.791317   -0.039087
 C        -13.869462    2.980577   -0.027559
 N        -17.119424   -1.735341   -0.009215
 O        -15.062208   -2.847350    0.027910
 C        -17.588139   -0.423951   -0.029791
 O        -16.685809    2.852110   -0.058434
 H        -14.603840    3.787668   -0.042332
 H        -13.238619    3.062558   -0.918309
 H        -13.256316    3.079071    0.873853
 C        -17.878975   -2.973204   -0.005255
 C        -18.965002   -0.014231   -0.050123
 H        -17.145103   -3.780600    0.011723
 H        -18.512089   -3.053220    0.884008
 H        -18.490890   -3.071610   -0.907431
 C        -19.386634    1.302732   -0.069847
 H        -18.666553    2.116258   -0.070913
 C        -20.793041    1.514055   -0.088143
 C        -21.559165    0.384457   -0.083910
 H        -21.227994    2.508367   -0.104389
 H        -22.638790    0.313654   -0.095288
 C         -0.279342    0.348459   -0.065056
 C          0.541607    1.474734   -0.147709
 C          2.356959   -0.070803   -0.008166
 C          1.916930    1.266220   -0.119393
 H          0.119958    2.472428   -0.228669
 C          3.696396   -0.465669    0.036881
 H          2.637239    2.076568   -0.177332
 C          4.863717    0.382593   -0.026413
 N          4.200197   -1.762973    0.150563
 C          6.008998   -0.389983    0.046495
 C          5.257020    1.781474   -0.142756
 C          5.615410   -1.790279    0.162360
 C          3.455695   -3.007172    0.257200
 C          7.175020    0.456170   -0.017405
 N          6.673504    1.752884   -0.131573
 O          4.605812    2.824070   -0.235084
 O          6.268380   -2.831033    0.254622
 H          4.196204   -3.804390    0.335078
 H          2.827587   -3.018599    1.152983
 H          2.841450   -3.180589   -0.631496
 C          8.517797    0.059802    0.027775
 C          7.418229    2.996943   -0.238100
 C          8.957609   -1.273274    0.141749
 H          6.677573    3.794105   -0.315196
 H          8.045802    3.008735   -1.134259
 H          8.033022    3.169869    0.650312
 C         11.152722   -0.355049    0.083397
 C         10.336744   -1.480338    0.169841
 H          8.238991   -2.084930    0.201702
 C         12.576903   -0.290186    0.087705
 H         10.759579   -2.477354    0.252385
 C         13.383897    0.821599   -0.029906
 S         13.541374   -1.773428    0.259374
 C         14.783702    0.542408    0.012719
 H         12.986487    1.820535   -0.163291
 C         15.042318   -0.855558    0.155298
 C         15.861344    1.456240   -0.119904
 C         16.326205   -1.407149    0.160268
 C         17.148113    0.901259   -0.114012
 C         15.659305    2.907324   -0.259283
 C         17.403814   -0.494732    0.026671
 C         16.527842   -2.860276    0.300272
 S         18.657071    1.809551   -0.207655
 C         16.167557    3.748898   -1.220069
 S         14.732947    3.835697    0.915314
 C         18.816257   -0.776237    0.063928
 C         16.052159   -3.695151    1.282470
 S         17.410942   -3.794525   -0.900913
 C         19.585179    0.337306   -0.049320
 C         15.812532    5.117149   -1.030017
 H         16.762031    3.393313   -2.054592
 C         15.037938    5.339557    0.078269
 H         19.224562   -1.772055    0.181551
 C         16.397729   -5.065621    1.086468
 H         15.486901   -3.334166    2.134950
 C         17.132989   -5.294404   -0.046755
 H         20.666207    0.392321   -0.049669
 H         16.118215    5.914410   -1.700092
 C         14.483856    6.638439    0.584741
 H         16.113684   -5.859283    1.770248
 C         17.667261   -6.596578   -0.566072
 H         14.788547    7.452614   -0.080013
 H         13.387891    6.627905    0.625197
 H         14.846494    6.872752    1.592872
 H         18.761026   -6.587367   -0.646592
 H         17.386443   -7.406830    0.113840
 H         17.267729   -6.836192   -1.558921
Se         10.069744    1.240600   -0.052613
Se          0.802391   -1.250492    0.068231
Se        -11.241140    1.198526    0.015511
Se        -20.512488   -1.192923   -0.054151
       138
S1: Total Energy = -6513.52475119
 C         -8.728453   -0.344124    0.053763
 C         -7.909133    0.772106   -0.051634
 C         -6.524464    0.492540   -0.010937
 C         -6.261041   -0.912476    0.114964
 S         -7.765448   -1.828628    0.206127
 H         -8.305717    1.772421   -0.176748
 C         -5.438991    1.415557   -0.135461
 C         -1.693444    0.303552   -0.079648
 C         -2.513878   -0.815716    0.028313
 C         -3.896446   -0.538693   -0.015729
 C         -4.161394    0.866901   -0.142440
 S         -2.660075    1.786744   -0.237116
 H         -2.115067   -1.814590    0.158206
 C         -4.983402   -1.462828    0.107795
 C         -5.648706    2.866702   -0.255069
 C         -5.153615    3.721921   -1.210932
 C         -5.509412    5.086615   -0.998804
 C         -6.272580    5.292163    0.120632
 S         -6.565550    3.777045    0.941538
 H         -4.569122    3.378694   -2.057689
 H         -5.213448    5.893313   -1.661830
 C         -4.774055   -2.912852    0.225267
 C         -5.292818   -3.774243    1.163749
 C         -4.930724   -5.137000    0.953673
 C         -4.139309   -5.336409   -0.147444
 S         -3.826198   -3.817197   -0.952570
 H         -5.898022   -3.436239    1.997853
 H         -5.242973   -5.947310    1.604662
 C         -3.574326   -6.624078   -0.669765
 H         -2.477957   -6.609372   -0.694814
 H         -3.885845   -7.451187   -0.024517
 H         -3.922328   -6.840420   -1.686980
 C         -6.824873    6.582668    0.649769
 H         -6.530044    7.406209   -0.007807
 H         -7.920243    6.567795    0.702258
 H         -6.451684    6.805006    1.656721
 C        -10.145454   -0.401286    0.049648
 C        -10.968294   -1.524223    0.121371
 C        -12.347786   -1.304137    0.096344
 H        -10.552573   -2.525189    0.190083
 C        -12.774893    0.025272    0.001366
 H        -13.073441   -2.111277    0.145462
 C        -14.132805    0.428346   -0.037629
 C        -15.274370   -0.402012    0.014410
 N        -14.613285    1.737824   -0.134472
 C        -15.675238   -1.785909    0.110759
 C        -16.438747    0.394927   -0.049768
 C        -16.038512    1.782557   -0.146112
 C        -13.856479    2.974093   -0.223289
 N        -17.106193   -1.736721    0.098736
 O        -15.049639   -2.846621    0.189713
 C        -17.577662   -0.430312    0.001985
 O        -16.671085    2.837884   -0.224634
 H        -14.591707    3.777778   -0.289611
 H        -13.227906    2.996765   -1.119073
 H        -13.240336    3.133332    0.667325
 C        -17.864688   -2.971988    0.184929
 C        -18.948268   -0.019537   -0.037508
 H        -17.130306   -3.776490    0.249750
 H        -18.493978   -2.994988    1.080242
 H        -18.481436   -3.127770   -0.705849
 C        -19.372851    1.296392   -0.133515
 H        -18.652685    2.108098   -0.184756
 C        -20.777680    1.504937   -0.159887
 C        -21.546215    0.377877   -0.087368
 H        -21.212818    2.496782   -0.232990
 H        -22.625886    0.307765   -0.091509
 C         -0.281462    0.359969   -0.073573
 C          0.541736    1.488667   -0.152417
 C          2.350779   -0.058627   -0.017658
 C          1.916391    1.274269   -0.123582
 H          0.121444    2.486959   -0.229181
 C          3.702289   -0.452783    0.026136
 H          2.639762    2.083133   -0.177382
 C          4.848886    0.388667   -0.031781
 N          4.194569   -1.754427    0.133889
 C          6.009538   -0.393608    0.039112
 C          5.239907    1.779894   -0.138946
 C          5.618255   -1.786959    0.146778
 C          3.446707   -2.996344    0.232722
 C          7.155057    0.444620   -0.017765
 N          6.666444    1.745208   -0.124948
 O          4.601120    2.830074   -0.227103
 O          6.261095   -2.833780    0.233881
 H          4.186534   -3.794860    0.306793
 H          2.817814   -3.013800    1.128132
 H          2.833110   -3.165865   -0.657461
 C          8.511130    0.046129    0.026641
 C          7.414360    2.986817   -0.224991
 C          8.946291   -1.280677    0.126921
 H          6.673995    3.784785   -0.300188
 H          8.043604    3.003409   -1.120237
 H          8.027588    3.157847    0.665227
 C         11.140598   -0.361523    0.082776
 C         10.329021   -1.489035    0.155600
 H          8.227261   -2.093434    0.177186
 C         12.564606   -0.296189    0.090306
 H         10.752491   -2.486419    0.227990
 C         13.371659    0.819371   -0.011794
 S         13.530381   -1.779339    0.242937
 C         14.768231    0.542934    0.030147
 H         12.972090    1.818731   -0.135101
 C         15.029664   -0.858194    0.151815
 C         15.846544    1.462464   -0.088511
 C         16.313004   -1.407783    0.146104
 C         17.132969    0.907777   -0.093062
 C         15.642620    2.913706   -0.202978
 C         17.390001   -0.490713    0.025382
 C         16.517308   -2.862191    0.263265
 S         18.642347    1.818044   -0.169061
 C         16.173069    3.776721   -1.133512
 S         14.684493    3.816777    0.966850
 C         18.800972   -0.771711    0.059480
 C         16.041077   -3.713230    1.231469
 S         17.403978   -3.775857   -0.951047
 C         19.570030    0.344746   -0.034747
 C         15.810206    5.139327   -0.924449
 H         16.787191    3.439871   -1.961457
 C         15.007626    5.337503    0.168915
 H         19.210088   -1.768824    0.161874
 C         16.389061   -5.079716    1.014343
 H         15.474394   -3.366751    2.089003
 C         17.126520   -5.289346   -0.121241
 H         20.651068    0.399709   -0.033140
 H         16.130237    5.950729   -1.570314
 C         14.438873    6.624725    0.688254
 H         16.105232   -5.884550    1.684967
 C         17.663368   -6.582273   -0.660475
 H         14.761580    7.453449    0.050615
 H         13.342225    6.613014    0.697770
 H         14.772988    6.836274    1.711115
 H         18.757407   -6.571075   -0.736700
 H         17.380367   -7.403992    0.004567
 H         17.267649   -6.805081   -1.658701
Se         10.056322    1.228853   -0.037218
Se          0.800948   -1.237376    0.053044
Se        -11.223840    1.198640   -0.063827
Se        -20.499354   -1.196461    0.031635
