        82
S0: Total Energy = -4730.24872365
 C         15.032735   -0.102277    1.419949
 C         14.662019    1.153939    1.033533
 C         13.294426    1.261397    0.627555
 C         12.629367    0.046472    0.712019
 S         13.707855   -1.211539    1.313378
 H         16.000989   -0.443543    1.760816
 H         15.342991    1.999033    1.024013
 C         11.262541   -0.315753    0.391236
 C         10.765570   -1.572015    0.108405
 C          9.366269   -1.634410   -0.126976
 C          8.760466   -0.386749   -0.028527
 S          9.947479    0.845883    0.385610
 H         11.401942   -2.449119    0.045905
 C         12.700461    2.563896    0.155942
 H         12.076689    2.432519   -0.734584
 H         12.072891    3.030985    0.926008
 H         13.494638    3.275163   -0.091364
 C          8.672795   -2.927812   -0.469075
 H          8.039704   -3.282580    0.354039
 H          8.031542   -2.828459   -1.351933
 H          9.409324   -3.710080   -0.675472
 C          7.388132    0.023778   -0.223143
 C          6.906373    1.306460   -0.406204
 S          6.041062   -1.103005   -0.194722
 C          5.497931    1.415746   -0.536372
 H          7.559542    2.171073   -0.468712
 C          4.863537    0.180134   -0.456272
 C          4.819799    2.742647   -0.760147
 C          3.470014   -0.183986   -0.566113
 H          4.128753    2.711865   -1.609981
 H          4.242007    3.059880    0.117090
 H          5.563483    3.519595   -0.960685
 C          2.936826   -1.447208   -0.745686
 S          2.162664    0.981319   -0.424743
 C          1.520604   -1.511520   -0.785087
 H          3.556502   -2.329681   -0.869499
 C          0.931165   -0.259905   -0.636022
 C          0.788452   -2.812194   -0.991866
 H          0.250822   -3.127115   -0.088701
 H          0.052126   -2.744219   -1.800599
 H          1.494196   -3.608241   -1.247141
 C         -0.454315    0.147713   -0.644854
 C         -0.958058    1.431385   -0.748756
 S         -1.786627   -0.983296   -0.460987
 C         -2.371312    1.538258   -0.697211
 H         -0.320098    2.299445   -0.881394
 C         -2.989358    0.299997   -0.553323
 C         -3.073525    2.866430   -0.813437
 C         -4.385139   -0.066231   -0.488448
 H         -3.859057    2.849593   -1.577315
 H         -3.545643    3.163645    0.131381
 H         -2.359819    3.650356   -1.083667
 C         -4.934844   -1.329980   -0.601595
 S         -5.667256    1.096878   -0.185898
 C         -6.345620   -1.395965   -0.466503
 H         -4.334159   -2.211648   -0.801612
 C         -6.913073   -0.145628   -0.246447
 C         -7.097152   -2.697089   -0.582224
 C         -8.291119    0.261478   -0.086345
 H         -7.488910   -3.030540    0.387031
 H         -7.949114   -2.618754   -1.266605
 H         -6.436685   -3.484989   -0.956557
 C         -8.812076    1.538095   -0.179667
 S         -9.577371   -0.859069    0.333537
 C        -10.208424    1.645011    0.058360
 H         -8.204314    2.398254   -0.442532
 C        -10.788919    0.416045    0.340972
 C        -10.934300    2.963255   -0.026214
 C        -12.166779    0.048549    0.606606
 H        -11.880107    2.875265   -0.571103
 H        -11.168665    3.364301    0.968123
 H        -10.315988    3.705754   -0.539942
 C        -12.752711   -1.192650    0.463190
 S        -13.345420    1.184446    1.258103
 C        -14.124532   -1.253511    0.858387
 H        -12.216287   -2.047817    0.063619
 C        -14.575131   -0.039045    1.305531
 C        -14.965596   -2.499709    0.775905
 H        -15.569883    0.215054    1.648141
 H        -15.987192   -2.312698    1.119790
 H        -15.020044   -2.875981   -0.253063
 H        -14.545354   -3.304481    1.391619
        82
T1: Total Energy = -4730.20280458
 C        -15.215765   -0.093747    0.000198
 C        -14.752475    1.190967   -0.000396
 C        -13.328041    1.300761   -0.000483
 C        -12.705646    0.055373    0.000077
 S        -13.912898   -1.234736    0.000692
 H        -16.240081   -0.441159    0.000373
 H        -15.404829    2.058327   -0.000780
 C        -11.310018   -0.309652    0.000233
 C        -10.768790   -1.586607    0.000851
 C         -9.360122   -1.657175    0.000882
 C         -8.761563   -0.388555    0.000268
 S        -10.004410    0.870232   -0.000375
 H        -11.386426   -2.479281    0.001304
 C        -12.632926    2.637508   -0.001103
 H        -11.995629    2.771321    0.881587
 H        -11.995543    2.770461   -0.883859
 H        -13.369402    3.446653   -0.001533
 C         -8.627395   -2.973040    0.001566
 H         -7.986768   -3.086688   -0.881313
 H         -7.986412   -3.085568    0.884327
 H         -9.339990   -3.803148    0.002230
 C         -7.392138    0.007183    0.000106
 C         -6.884059    1.312070   -0.000206
 S         -6.043625   -1.133920    0.000161
 C         -5.493011    1.431643   -0.000384
 H         -7.533633    2.181813   -0.000274
 C         -4.838077    0.172859   -0.000208
 C         -4.800741    2.768463   -0.000721
 C         -3.473389   -0.164673   -0.000245
 H         -4.163592    2.900480    0.882056
 H         -4.163649    2.900060   -0.883601
 H         -5.538526    3.576253   -0.000888
 C         -2.916984   -1.467030   -0.000205
 S         -2.152117    1.019736   -0.000308
 C         -1.536292   -1.546042   -0.000205
 H         -3.543838   -2.353080   -0.000168
 C         -0.908042   -0.259188   -0.000238
 C         -0.800167   -2.858581   -0.000130
 H         -0.158947   -2.967545   -0.882997
 H         -0.159052   -2.967495    0.882822
 H         -1.510613   -3.690409   -0.000151
 C          0.437799    0.109485   -0.000208
 C          0.959345    1.431447   -0.000072
 S          1.797768   -1.034914   -0.000325
 C          2.337447    1.545536   -0.000047
 H          0.308159    2.299409    0.000036
 C          2.998094    0.280230   -0.000186
 C          3.037200    2.878148    0.000102
 C          4.363460   -0.052692   -0.000199
 H          3.675105    3.003602    0.883098
 H          3.675141    3.003780   -0.882842
 H          2.304450    3.690224    0.000170
 C          4.922102   -1.346096   -0.000472
 S          5.681063    1.132199    0.000115
 C          6.316601   -1.409175   -0.000417
 H          4.304740   -2.238315   -0.000716
 C          6.919358   -0.133606   -0.000085
 C          7.058348   -2.719776   -0.000685
 C          8.289602    0.258685    0.000093
 H          7.699918   -2.825567   -0.883618
 H          7.699842   -2.825971    0.882255
 H          6.351857   -3.554810   -0.000908
 C          8.798902    1.555312    0.000507
 S          9.636096   -0.881878   -0.000171
 C         10.205575    1.659362    0.000599
 H          8.158485    2.431374    0.000746
 C         10.833543    0.411912    0.000240
 C         10.903416    2.994528    0.001022
 C         12.230340    0.048763    0.000150
 H         11.541124    3.122682    0.883855
 H         11.541579    3.123004   -0.881432
 H         10.169676    3.805819    0.000989
 C         12.771524   -1.225183   -0.000628
 S         13.537318    1.236243    0.001166
 C         14.196718   -1.270038   -0.000454
 H         12.159161   -2.121682   -0.001346
 C         14.741707   -0.011688    0.000483
 C         14.995229   -2.546539   -0.001250
 H         15.789802    0.258282    0.000782
 H         16.069948   -2.342388   -0.000669
 H         14.768059   -3.158125    0.880519
 H         14.768733   -3.156608   -0.884245
        82
S1: Total Energy = -4730.17898407
 C        -15.215652   -0.095046   -0.023730
 C        -14.752391    1.190773    0.005284
 C        -13.330423    1.303687    0.015954
 C        -12.702843    0.056947   -0.005776
 S        -13.911452   -1.235619   -0.040185
 H        -16.239839   -0.442591   -0.036461
 H        -15.406495    2.056882    0.019662
 C        -11.312145   -0.305070   -0.003970
 C        -10.768757   -1.585595   -0.011119
 C         -9.364196   -1.658144   -0.010194
 C         -8.760594   -0.387558   -0.002018
 S        -10.003825    0.874623    0.004703
 H        -11.388086   -2.477154   -0.016441
 C        -12.636855    2.640387    0.048318
 H        -11.997480    2.752887    0.932676
 H        -12.001014    2.797522   -0.831883
 H        -13.374319    3.448492    0.069973
 C         -8.631502   -2.973353   -0.017138
 H         -7.987301   -3.080268   -0.898573
 H         -7.992705   -3.092704    0.866667
 H         -9.343740   -3.803804   -0.025131
 C         -7.394142    0.005660    0.001405
 C         -6.884740    1.310929    0.005416
 S         -6.045733   -1.134987    0.000846
 C         -5.491495    1.426320    0.007709
 H         -7.532699    2.181655    0.006219
 C         -4.841684    0.170509    0.005767
 C         -4.797398    2.761901    0.011867
 C         -3.470693   -0.174459    0.006888
 H         -4.159164    2.889515    0.894793
 H         -4.159596    2.895266   -0.870545
 H         -5.533323    3.571324    0.014618
 C         -2.919081   -1.468885    0.008421
 S         -2.155511    1.007375    0.005781
 C         -1.526804   -1.540618    0.008710
 H         -3.541347   -2.357840    0.009621
 C         -0.913136   -0.263772    0.007038
 C         -0.790510   -2.853281    0.010459
 H         -0.148116   -2.962962   -0.871704
 H         -0.149605   -2.961451    0.893908
 H         -1.500066   -3.685782    0.010613
 C          0.444560    0.120871    0.005674
 C          0.956728    1.432702    0.000621
 S          1.796152   -1.019786    0.009924
 C          2.346410    1.545182   -0.000277
 H          0.307954    2.302362   -0.002850
 C          2.997052    0.288288    0.004537
 C          3.043109    2.879440   -0.005790
 C          4.368549   -0.054940    0.005475
 H          3.682248    3.009917    0.875756
 H          3.679634    3.003996   -0.890095
 H          2.309017    3.690280   -0.007471
 C          4.921664   -1.346166    0.013073
 S          5.682354    1.127789   -0.003536
 C          6.318332   -1.411249    0.011899
 H          4.303322   -2.237724    0.019648
 C          6.922075   -0.136798    0.002790
 C          7.058111   -2.722546    0.019529
 C          8.289042    0.254957   -0.002154
 H          7.699152   -2.834742   -0.863080
 H          7.699983   -2.824003    0.902843
 H          6.350756   -3.556818    0.024988
 C          8.799582    1.555111   -0.014201
 S          9.636679   -0.885756    0.006420
 C         10.202167    1.659689   -0.016972
 H          8.157895    2.430190   -0.021377
 C         10.834394    0.409462   -0.006731
 C         10.900710    2.994040   -0.029990
 C         12.226340    0.049957   -0.005632
 H         11.539257    3.129782    0.851092
 H         11.538175    3.113117   -0.914250
 H         10.167577    3.805787   -0.037192
 C         12.770711   -1.226479    0.003314
 S         13.534925    1.239034   -0.015645
 C         14.193435   -1.269257    0.002314
 H         12.158956   -2.123280    0.010361
 C         14.738394   -0.008939   -0.007512
 C         14.995120   -2.543726    0.010967
 H         15.786666    0.260493   -0.010472
 H         16.069302   -2.337056    0.007078
 H         14.771290   -3.147705    0.898757
 H         14.767640   -3.161954   -0.866012
