        92
S0: Total Energy = -6346.56444116
 C         10.133070   -0.753458   -0.079260
 C         11.180596    0.170391    0.008348
 N         10.720998   -2.013122   -0.188235
 C         11.451069    1.581981    0.135990
 C         12.420224   -0.518928   -0.046531
 C         12.150147   -1.930820   -0.173604
 C         10.077410   -3.310842   -0.308712
 N         12.880842    1.663688    0.151931
 O         10.728353    2.576924    0.219908
 C         13.467495    0.404657    0.042043
 O         12.873250   -2.925313   -0.258572
 H         10.882376   -4.045050   -0.369695
 H          9.469561   -3.373964   -1.216391
 H          9.458835   -3.533894    0.565868
 C         13.525053    2.961345    0.271531
 H         12.720605    3.696248    0.330407
 H         14.131792    3.024851    1.179856
 H         14.145311    3.182126   -0.602326
 C          8.727134   -0.468386   -0.061752
 C          8.193771    0.814385    0.045182
 S          7.439593   -1.696953   -0.173412
 C          6.789561    0.802571    0.036708
 H          8.824105    1.694904    0.124184
 C          6.214622   -0.467504   -0.074536
 S          5.554150    2.033619    0.134788
 C          4.803236   -0.473630   -0.086935
 C          4.278625    0.804042    0.016188
 H          4.190845   -1.363688   -0.173788
 C         14.875828    0.119394    0.023197
 C         15.407335   -1.160138   -0.093200
 S         16.164080    1.346226    0.144942
 C         16.815921   -1.149259   -0.084539
 H         14.777516   -2.040410   -0.178496
 C         17.388808    0.118257    0.037003
 S         18.056171   -2.376304   -0.192849
 C         18.811455    0.119106    0.044664
 C         19.301926   -1.153788   -0.071813
 H         19.436500    0.999840    0.130476
 H         20.340514   -1.456668   -0.094577
 C          2.894110    1.199058    0.034145
 C          2.354048    2.473351    0.054186
 S          1.610231   -0.002486    0.029945
 C          0.943168    2.494995    0.066465
 H          2.960989    3.372305    0.056876
 C          0.364055    1.237845    0.056171
 H          0.364135    3.411934    0.086641
 C         -1.032042    0.885587    0.063771
 S         -2.268310    2.155042   -0.050703
 C         -1.596573   -0.376158    0.151191
 C         -3.541793    0.961998    0.027858
 C         -3.006915   -0.326276    0.130050
 H         -1.012547   -1.285406    0.233891
 C         -4.944851    1.017308    0.009975
 S         -4.269938   -1.518212    0.208498
 C         -5.518309   -0.249507    0.100157
 H         -5.547349    1.917421   -0.065083
 C         -6.932070   -0.491839    0.103551
 C         -7.950753    0.464052    0.014096
 N         -7.559297   -1.733784    0.196982
 C         -9.210498   -0.187469    0.051443
 C         -8.176958    1.884546   -0.106272
 C         -8.984826   -1.607676    0.170138
 C         -6.956799   -3.051427    0.313697
 C        -10.229408    0.768637   -0.042245
 N         -9.602456    2.010279   -0.136514
 O         -7.422734    2.857007   -0.175202
 O         -9.739027   -2.580328    0.241731
 H         -7.784345   -3.761030    0.362478
 H         -6.337660   -3.287377   -0.557113
 H         -6.359113   -3.139382    1.226067
 C        -11.642879    0.526174   -0.042114
 C        -10.205729    3.327824   -0.251369
 C        -12.215225   -0.739797    0.062509
 S        -12.893321    1.790574   -0.178571
 H         -9.378986    4.038850   -0.291726
 H        -10.831133    3.558490    0.616289
 H        -10.797512    3.419007   -1.167262
 C        -13.618444   -0.687337    0.031793
 H        -11.612012   -1.638001    0.153831
 C        -14.154380    0.597422   -0.094339
 S        -14.891886   -1.880869    0.113381
 C        -15.567114    0.644961   -0.115222
 C        -16.127994   -0.614240   -0.007818
 H        -16.154224    1.552817   -0.190354
 C        -17.528389   -0.972654    0.009434
 C        -18.107641   -2.183388    0.333539
 S        -18.770482    0.194870   -0.422396
 C        -19.527182   -2.176851    0.243994
 H        -17.531748   -3.049684    0.641636
 C        -20.030076   -0.965270   -0.146484
 H        -20.147961   -3.037615    0.466318
 H        -21.063329   -0.679958   -0.291683
        92
T1: Total Energy = -6346.53299968
 C        -10.122688   -0.752665    0.003277
 C        -11.171913    0.176462   -0.000493
 N        -10.712920   -2.016943    0.005317
 C        -11.441999    1.593807   -0.004711
 C        -12.410564   -0.514285   -0.000939
 C        -12.140751   -1.932594    0.002845
 C        -10.070308   -3.320659    0.009646
 N        -12.871557    1.677093   -0.007722
 O        -10.718742    2.592391   -0.005800
 C        -13.458946    0.413699   -0.005506
 O        -12.865314   -2.929842    0.004141
 H        -10.875704   -4.056908    0.010148
 H         -9.458564   -3.462847    0.905681
 H         -9.455617   -3.467318   -0.883641
 C        -13.515360    2.980365   -0.011566
 H        -12.710701    3.717388   -0.010851
 H        -14.126725    3.122147   -0.907853
 H        -14.131181    3.125118    0.881176
 C         -8.719735   -0.468493    0.004696
 C         -8.183549    0.820248    0.002731
 S         -7.431618   -1.703065    0.008982
 C         -6.781928    0.807409    0.004582
 H         -8.814056    1.704212   -0.000031
 C         -6.205563   -0.469689    0.007978
 S         -5.545460    2.042556    0.003493
 C         -4.797856   -0.478823    0.009865
 C         -4.268151    0.805407    0.007872
 H         -4.186206   -1.373535    0.012746
 C        -14.866675    0.127550   -0.007735
 C        -15.398403   -1.157470   -0.004469
 S        -16.155456    1.360243   -0.015591
 C        -16.806928   -1.145907   -0.008179
 H        -14.768327   -2.041652    0.000177
 C        -17.380255    0.127227   -0.014325
 S        -18.047014   -2.378011   -0.006911
 C        -18.802849    0.128396   -0.018041
 C        -19.293261   -1.149890   -0.014661
 H        -19.428113    1.013143   -0.022907
 H        -20.331766   -1.453867   -0.016252
 C         -2.889151    1.193367    0.008709
 C         -2.342139    2.471322    0.009798
 S         -1.605611   -0.012864    0.008107
 C         -0.938740    2.493043    0.010314
 H         -2.949298    3.370248    0.010441
 C         -0.353274    1.228921    0.009644
 H         -0.358290    3.409240    0.011319
 C          1.028651    0.883347    0.009707
 S          2.275815    2.155632    0.009503
 C          1.600263   -0.393155    0.009556
 C          3.547195    0.951034    0.009144
 C          2.995088   -0.349167    0.009244
 H          1.010355   -1.302522    0.009666
 C          4.932831    1.005445    0.008573
 S          4.255126   -1.558134    0.008669
 C          5.520576   -0.285331    0.008154
 H          5.538882    1.905505    0.008303
 C          6.899150   -0.527587    0.007041
 C          7.955882    0.453011    0.005854
 N          7.550573   -1.763685    0.006363
 C          9.185587   -0.185409    0.004279
 C          8.182641    1.890085    0.005205
 C          8.958814   -1.625693    0.004627
 C          6.955720   -3.091173    0.007632
 C         10.240011    0.790504    0.002361
 N          9.595033    2.025396    0.003083
 O          7.414375    2.855681    0.006201
 O          9.731217   -2.586498    0.003806
 H          7.784295   -3.800639    0.007365
 H          6.348184   -3.252648    0.902859
 H          6.346718   -3.253763   -0.886403
 C         11.627258    0.544774   -0.000036
 C         10.191598    3.352157    0.002130
 C         12.209503   -0.739225   -0.000600
 S         12.889657    1.816186   -0.003222
 H          9.363539    4.062224    0.003476
 H         10.798682    3.513242   -0.893464
 H         10.801582    3.513196    0.895763
 C         13.602644   -0.684130   -0.003556
 H         11.605022   -1.640304    0.001039
 C         14.148920    0.610175   -0.005344
 S         14.874563   -1.885667   -0.005854
 C         15.553581    0.653857   -0.008383
 C         16.117146   -0.615594   -0.009035
 H         16.143109    1.563381   -0.009968
 C         17.511955   -0.973046   -0.011922
 C         18.084602   -2.232503   -0.010538
 S         18.769541    0.259442   -0.018210
 C         19.505176   -2.211740   -0.014365
 H         17.500715   -3.146833   -0.006716
 C         20.020070   -0.942778   -0.018669
 H         20.119768   -3.105024   -0.013877
 H         21.057566   -0.636804   -0.022086
        92
S1: Total Energy = -6346.51013484
 C        -10.103182   -0.763695   -0.010812
 C        -11.160372    0.173767    0.007189
 N        -10.706265   -2.025198    0.000863
 C        -11.426193    1.593230    0.011023
 C        -12.393315   -0.510090    0.030830
 C        -12.127920   -1.932875    0.027287
 C        -10.070313   -3.331964   -0.008928
 N        -12.853386    1.682098    0.038055
 O        -10.698475    2.590147   -0.003823
 C        -13.448637    0.422724    0.050646
 O        -12.861190   -2.924307    0.041882
 H        -10.878483   -4.064992    0.005201
 H         -9.442431   -3.478289    0.875263
 H         -9.472591   -3.479531   -0.913573
 C        -13.491341    2.987998    0.047493
 H        -12.683923    3.721775    0.029572
 H        -14.122423    3.131033   -0.834897
 H        -14.086830    3.135816    0.953519
 C         -8.713685   -0.485637   -0.033665
 C         -8.167591    0.811283   -0.039071
 S         -7.422098   -1.724030   -0.056647
 C         -6.776617    0.797282   -0.059246
 H         -8.799047    1.694544   -0.027410
 C         -6.192516   -0.487688   -0.071178
 S         -5.539946    2.035690   -0.071145
 C         -4.797502   -0.497779   -0.088841
 C         -4.256954    0.795850   -0.090194
 H         -4.184560   -1.391672   -0.098218
 C        -14.849116    0.138841    0.079432
 C        -15.388480   -1.148161    0.089988
 S        -16.137371    1.376045    0.109811
 C        -16.793524   -1.130926    0.121952
 H        -14.760738   -2.033820    0.075323
 C        -17.365700    0.144988    0.136545
 S        -18.037727   -2.360546    0.149454
 C        -18.785953    0.148791    0.169355
 C        -19.280942   -1.129107    0.179525
 H        -19.409266    1.034904    0.184644
 H        -20.320079   -1.429897    0.203099
 C         -2.892361    1.173088   -0.100182
 C         -2.337561    2.461091   -0.090721
 S         -1.604425   -0.035317   -0.122115
 C         -0.944891    2.481818   -0.098507
 H         -2.946847    3.358246   -0.076874
 C         -0.351387    1.211648   -0.115235
 H         -0.363128    3.397326   -0.092202
 C          1.022433    0.875237   -0.122689
 S          2.268053    2.151745   -0.093169
 C          1.599927   -0.404016   -0.147952
 C          3.540814    0.949057   -0.113462
 C          2.992708   -0.353801   -0.142857
 H          1.012022   -1.314112   -0.168567
 C          4.927611    1.002521   -0.104350
 S          4.255400   -1.555343   -0.162502
 C          5.512600   -0.280957   -0.127516
 H          5.533389    1.903285   -0.079601
 C          6.905085   -0.517112   -0.117706
 C          7.938067    0.455130   -0.073883
 N          7.547733   -1.756257   -0.143738
 C          9.186006   -0.187229   -0.069771
 C          8.158847    1.884347   -0.023616
 C          8.965135   -1.619316   -0.115955
 C          6.952871   -3.081891   -0.200279
 C         10.217905    0.780813   -0.014843
 N          9.580621    2.018635    0.011059
 O          7.398316    2.854445   -0.010307
 O          9.730282   -2.584638   -0.133172
 H          7.782866   -3.789811   -0.216741
 H          6.334681   -3.279903    0.680441
 H          6.355735   -3.212202   -1.107713
 C         11.617035    0.538848    0.013160
 C         10.176553    3.343931    0.062038
 C         12.197668   -0.738318   -0.019812
 S         12.870176    1.810940    0.102493
 H          9.346946    4.052552    0.057508
 H         10.809083    3.530272   -0.811004
 H         10.759352    3.484668    0.977323
 C         13.591977   -0.682178    0.026625
 H         11.595031   -1.639784   -0.072874
 C         14.131591    0.612625    0.095704
 S         14.866661   -1.879753    0.021528
 C         15.536273    0.659402    0.144593
 C         16.102583   -0.608258    0.113890
 H         16.122433    1.569295    0.200712
 C         17.497289   -0.961365    0.148664
 C         18.075014   -2.219031    0.116887
 S         18.749085    0.273522    0.245540
 C         19.493516   -2.194275    0.168798
 H         17.495347   -3.134126    0.057678
 C         20.002523   -0.924023    0.240221
 H         20.111986   -3.084686    0.153670
 H         21.038256   -0.615959    0.290002
