       131
S0: Total Energy = -4844.53534486
 C         20.342433   -0.329248    0.319110
 C         19.175482    0.313226    0.729447
 N         19.963095   -1.420059   -0.454690
 C         18.683372    1.438669    1.503593
 C         18.049443   -0.382702    0.208938
 C         18.540318   -1.509039   -0.562756
 C         20.790943   -2.416941   -1.127901
 N         17.260969    1.346763    1.398833
 O         19.246001    2.327999    2.141241
 C         16.881393    0.255480    0.624536
 O         17.976557   -2.396369   -1.203026
 H         20.096005   -3.093716   -1.626880
 H         21.402652   -2.966595   -0.411552
 H         21.450932   -1.948776   -1.859298
 C         16.431062    2.344731    2.067131
 H         17.124382    3.032014    2.553800
 H         15.810703    2.882747    1.349076
 H         15.779667    1.880479    2.808869
 C         21.733723    0.030729    0.617213
 C         22.013494    1.163882    1.405478
 N         22.710324   -0.753682    0.114957
 C         23.342883    1.478887    1.670625
 H         21.205779    1.774486    1.796226
 C         23.977046   -0.433854    0.381250
 C         24.352326    0.669226    1.151954
 H         23.583893    2.347883    2.276142
 H         24.733680   -1.092149   -0.042385
 H         25.401188    0.880168    1.335388
 C         15.496652   -0.112113    0.334675
 C         15.211328   -1.234725   -0.469402
 N         14.509600    0.648107    0.855738
 C         13.889772   -1.555962   -0.730722
 H         16.017003   -1.832706   -0.883764
 C         13.249409    0.321102    0.602710
 C         12.850312   -0.775830   -0.189973
 H         13.664064   -2.405480   -1.367494
 H         12.497484    0.960051    1.064193
 C         11.447557   -1.091443   -0.430695
 C         10.907595   -2.268201   -0.913506
 S         10.169861    0.066815   -0.109121
 C          9.498584   -2.248065   -1.022585
 H         11.507188   -3.134096   -1.169985
 C          8.924826   -1.054187   -0.629207
 H          8.923064   -3.087164   -1.396572
 C          7.512215   -0.694696   -0.616589
 C          6.498617   -1.667403   -0.705850
 C          7.077121    0.644208   -0.520908
 C          5.166476   -1.288938   -0.701773
 H          6.752901   -2.721105   -0.762190
 N          5.806368    1.023425   -0.506260
 H          7.807827    1.450075   -0.463936
 C          4.844222    0.079814   -0.595761
 H          4.380599   -2.034828   -0.768454
 C          3.447862    0.509904   -0.577947
 C          2.299596   -0.278669   -0.657120
 N          3.032266    1.833153   -0.474121
 C          1.844662   -1.652130   -0.775187
 C          1.151930    0.557641   -0.602188
 C          1.606817    1.931106   -0.484219
 C          3.829924    3.050872   -0.362513
 N          0.419257   -1.554310   -0.783962
 O          2.438015   -2.727388   -0.856559
 C          0.003646   -0.231098   -0.679400
 O          1.013459    3.006502   -0.404936
 H          3.114372    3.871882   -0.301203
 H          4.474536    3.178664   -1.233193
 H          4.454684    3.029547    0.531427
 C         -0.378202   -2.771898   -0.898746
 C         -1.392892    0.198169   -0.655760
 H          0.337564   -3.592132   -0.967502
 H         -1.019101   -2.904886   -0.026121
 H         -1.006702   -2.745991   -1.789933
 C         -1.715892    1.567038   -0.553515
 N         -2.354509   -0.747275   -0.730439
 C         -3.048631    1.942488   -0.521741
 H         -0.930375    2.313472   -0.488545
 C         -3.625552   -0.369558   -0.708015
 C         -4.061449    0.968309   -0.602121
 H         -3.304696    2.992094   -0.417366
 H         -4.355806   -1.173663   -0.789950
 C         -5.474553    1.325551   -0.583074
 C         -6.046724    2.561853   -0.814050
 S         -6.722492    0.141489   -0.240334
 C         -7.457243    2.564536   -0.722254
 H         -5.468964    3.445323   -1.061048
 C         -7.999784    1.331295   -0.415035
 H         -8.056275    3.456630   -0.865055
 C         -9.404376    0.982443   -0.239907
 C        -10.440075    1.831353   -0.674015
 C         -9.809490   -0.218999    0.379119
 C        -11.763518    1.472643   -0.480179
 H        -10.209785    2.765481   -1.176453
 N        -11.071443   -0.582028    0.565245
 H         -9.061108   -0.917169    0.752137
 C        -12.055000    0.243738    0.147179
 H        -12.566135    2.122699   -0.814347
 C        -13.441403   -0.166517    0.359002
 C        -14.607295    0.517036    0.014097
 N        -13.826980   -1.357165    0.966370
 C        -15.093745    1.736229   -0.605506
 C        -15.735992   -0.251569    0.409038
 C        -15.250119   -1.470357    1.028964
 C        -13.001897   -2.431728    1.510120
 N        -16.516694    1.622817   -0.543413
 O        -14.525149    2.708256   -1.102400
 C        -16.902134    0.432320    0.063748
 O        -15.818358   -2.442024    1.527294
 H        -13.698762   -3.180040    1.890055
 H        -12.365143   -2.067350    2.317457
 H        -12.366839   -2.867718    0.737735
 C        -17.341886    2.698228   -1.085731
 C        -18.289183    0.022374    0.274410
 H        -16.645199    3.448045   -1.463004
 H        -17.977389    2.335022   -1.894485
 H        -17.978342    3.131484   -0.313037
 C        -18.581016   -1.203826    0.905813
 N        -19.271735    0.844518   -0.152398
 C        -19.905479   -1.570702    1.081563
 H        -17.778795   -1.855651    1.237492
 C        -20.534300    0.482210    0.034416
 C        -20.940058   -0.722235    0.646682
 H        -20.138656   -2.525456    1.542508
 H        -21.283550    1.192982   -0.311899
 C        -22.346792   -1.068037    0.826303
 C        -22.895119   -1.985194    1.698936
 S        -23.618187   -0.305108   -0.117749
 C        -24.312588   -2.074711    1.618827
 H        -22.301221   -2.564246    2.397380
 C        -24.845282   -1.228090    0.684052
 H        -24.910416   -2.737529    2.234532
 H        -25.883885   -1.091317    0.414101
       131
T1: Total Energy = -4844.49931576
 C         20.355069   -0.370595   -0.520079
 C         19.220615    0.427431   -0.378880
 N         19.927746   -1.693082   -0.550666
 C         18.781336    1.806796   -0.264971
 C         18.067714   -0.402855   -0.319139
 C         18.505893   -1.781354   -0.429733
 C         20.707420   -2.920456   -0.684222
 N         17.360895    1.717996   -0.139341
 O         19.382375    2.880616   -0.263702
 C         16.932570    0.394720   -0.170979
 O         17.903831   -2.855208   -0.434104
 H         19.983899   -3.736630   -0.665977
 H         21.415135   -3.026696    0.138907
 H         21.263635   -2.931308   -1.622351
 C         16.578690    2.943843   -0.010374
 H         17.298852    3.762453   -0.044280
 H         15.862669    3.039573   -0.827886
 H         16.031935    2.963176    0.933298
 C         21.757525    0.049262   -0.621572
 C         22.086523    1.418302   -0.583047
 N         22.696629   -0.911455   -0.750385
 C         23.425494    1.784498   -0.681379
 H         21.308390    2.167632   -0.478395
 C         23.973421   -0.538539   -0.842998
 C         24.396167    0.792615   -0.814324
 H         23.703958    2.834092   -0.654124
 H         24.698591   -1.344123   -0.945537
 H         25.450978    1.036088   -0.893884
 C         15.538768   -0.026436   -0.061768
 C         15.199849   -1.394406   -0.125416
 N         14.592537    0.924263    0.100994
 C         13.869362   -1.763203   -0.026465
 H         15.972275   -2.145532   -0.257897
 C         13.324168    0.553238    0.203165
 C         12.871846   -0.783451    0.146412
 H         13.601299   -2.812525   -0.097520
 H         12.609408    1.361825    0.351266
 C         11.464513   -1.131218    0.264881
 C         10.906768   -2.375513    0.502379
 S         10.196119    0.072613    0.108578
 C          9.498472   -2.369088    0.567624
 H         11.499858   -3.270565    0.651964
 C          8.931404   -1.117621    0.381517
 H          8.914639   -3.259888    0.768338
 C          7.527960   -0.757098    0.389810
 C          6.502085   -1.729522    0.415008
 C          7.093665    0.591359    0.377505
 C          5.177597   -1.346197    0.427104
 H          6.748193   -2.786530    0.413765
 N          5.832616    0.981960    0.384498
 H          7.830804    1.394151    0.369915
 C          4.851990    0.036010    0.408799
 H          4.390025   -2.092155    0.443683
 C          3.486294    0.469558    0.414835
 C          2.283362   -0.330477    0.439452
 N          3.053133    1.783817    0.397083
 C          1.819386   -1.714366    0.467036
 C          1.172165    0.492102    0.436374
 C          1.636199    1.876006    0.409296
 C          3.847392    3.009885    0.368233
 N          0.402494   -1.622190    0.478901
 O          2.423037   -2.788577    0.479331
 C         -0.030751   -0.307912    0.460891
 O          1.032647    2.950245    0.397782
 H          3.133596    3.834000    0.358736
 H          4.475581    3.041218   -0.522568
 H          4.489716    3.074047    1.247150
 C         -0.391777   -2.848256    0.507242
 C         -1.396395    0.125577    0.464771
 H          0.322003   -3.672404    0.515010
 H         -1.019023   -2.880718    1.398678
 H         -1.035049   -2.911264   -0.371057
 C         -1.722083    1.507766    0.443935
 N         -2.377074   -0.820395    0.488137
 C         -3.046641    1.890864    0.441919
 H         -0.934570    2.253663    0.422928
 C         -3.638137   -0.429891    0.489682
 C         -4.072606    0.918406    0.465249
 H         -3.292992    2.947368    0.411036
 H         -4.375100   -1.232280    0.520614
 C         -5.475953    1.278820    0.467679
 C         -6.040151    2.536241    0.619532
 S         -6.744879    0.080518    0.256012
 C         -7.449194    2.541212    0.576190
 H         -5.453238    3.433206    0.779704
 C         -8.010808    1.289785    0.390108
 H         -8.039533    3.441467    0.703719
 C         -9.419703    0.939184    0.304139
 C        -10.420156    1.913968    0.119305
 C         -9.871070   -0.395183    0.405445
 C        -11.751784    1.542962    0.051172
 H        -10.153547    2.960847    0.014759
 N        -11.140770   -0.768699    0.333569
 H         -9.153974   -1.199624    0.564600
 C        -12.089803    0.177282    0.158547
 H        -12.526207    2.290269   -0.090940
 C        -13.484595   -0.246044    0.081891
 C        -14.622037    0.547250   -0.076079
 N        -13.913486   -1.567409    0.160334
 C        -15.062021    1.922399   -0.223993
 C        -15.774665   -0.283700   -0.095297
 C        -15.335281   -1.658682    0.055835
 C        -13.130358   -2.789155    0.318261
 N        -16.484393    1.831248   -0.324596
 O        -14.459653    2.995119   -0.268479
 C        -16.912402    0.510168   -0.247506
 O        -15.937706   -2.731467    0.098354
 H        -13.851463   -3.607656    0.321561
 H        -12.570062   -2.778105    1.254125
 H        -12.426138   -2.912547   -0.505772
 C        -17.267253    3.052828   -0.486538
 C        -18.309563    0.087615   -0.318675
 H        -16.545223    3.870371   -0.501759
 H        -17.834249    3.034477   -1.418233
 H        -17.965509    3.183575    0.341271
 C        -18.645395   -1.279055   -0.233674
 N        -19.258722    1.036447   -0.468932
 C        -19.977805   -1.649979   -0.315077
 H        -17.869291   -2.029203   -0.117997
 C        -20.530411    0.663737   -0.533443
 C        -20.978168   -0.672290   -0.466446
 H        -20.242806   -2.702076   -0.277970
 H        -21.252976    1.472616   -0.634359
 C        -22.393047   -1.023208   -0.541901
 C        -23.005606   -2.189112   -0.131227
 S        -23.587443    0.075110   -1.217844
 C        -24.411383   -2.204180   -0.348633
 H        -22.467194   -3.005733    0.336882
 C        -24.870833   -1.051461   -0.926944
 H        -25.053825   -3.035791   -0.081129
 H        -25.884770   -0.795058   -1.203469
       131
S1: Total Energy = -4844.47374500
 C         20.365714   -0.357352    0.116162
 C         19.214348    0.436165    0.087775
 N         19.947546   -1.681835    0.107717
 C         18.760145    1.816804    0.078134
 C         18.068727   -0.398498    0.062576
 C         18.521084   -1.776497    0.074141
 C         20.740834   -2.907317    0.125068
 N         17.337280    1.723419    0.048165
 O         19.356488    2.893618    0.089753
 C         16.914527    0.396730    0.039363
 O         17.927351   -2.855767    0.059738
 H         20.022471   -3.727977    0.106841
 H         21.354701   -2.963687    1.024833
 H         21.396755   -2.961550   -0.744794
 C         16.542756    2.947636    0.025897
 H         17.259666    3.769716    0.031339
 H         15.922466    2.995539   -0.870193
 H         15.893265    3.009563    0.900201
 C         21.765986    0.069950    0.150064
 C         22.084310    1.443269    0.148887
 N         22.719231   -0.886789    0.182175
 C         23.423806    1.817198    0.181602
 H         21.296278    2.189119    0.123613
 C         23.996183   -0.505477    0.213337
 C         24.407983    0.829631    0.214613
 H         23.692931    2.869625    0.181298
 H         24.731965   -1.307713    0.238676
 H         25.464027    1.079283    0.240646
 C         15.528015   -0.028840    0.013944
 C         15.198165   -1.404584   -0.001723
 N         14.560646    0.921304    0.007217
 C         13.869991   -1.780792   -0.023420
 H         15.982921   -2.154538    0.004791
 C         13.294396    0.544000   -0.013270
 C         12.849770   -0.801889   -0.029507
 H         13.619494   -2.836536   -0.034938
 H         12.565523    1.353956   -0.017483
 C         11.447965   -1.148518   -0.050054
 C         10.874094   -2.416284   -0.071862
 S         10.182537    0.073948   -0.048915
 C          9.472471   -2.412245   -0.087288
 H         11.458317   -3.329051   -0.076685
 C          8.905998   -1.139113   -0.077725
 H          8.882343   -3.320884   -0.105048
 C          7.510915   -0.783621   -0.087035
 C          6.480302   -1.755833   -0.106869
 C          7.074356    0.567983   -0.076120
 C          5.158067   -1.369948   -0.113287
 H          6.723066   -2.813453   -0.116597
 N          5.815073    0.957587   -0.081713
 H          7.811677    1.370657   -0.061792
 C          4.833546    0.012792   -0.099554
 H          4.367504   -2.113643   -0.128068
 C          3.463306    0.446063   -0.102959
 C          2.286964   -0.344529   -0.118070
 N          3.041070    1.771214   -0.089453
 C          1.825638   -1.724876   -0.136290
 C          1.158621    0.489264   -0.112686
 C          1.620529    1.869392   -0.094527
 C          3.840205    2.992449   -0.072035
 N          0.405780   -1.627227   -0.140418
 O          2.421156   -2.803168   -0.147113
 C         -0.017816   -0.301492   -0.125689
 O          1.025809    2.948064   -0.084861
 H          3.127645    3.818176   -0.067048
 H          4.480622    3.052354   -0.953116
 H          4.471048    3.033457    0.817002
 C         -0.392824   -2.848589   -0.159266
 C         -1.386320    0.131559   -0.122006
 H          0.320193   -3.673890   -0.169309
 H         -1.030327   -2.912244    0.723732
 H         -1.026412   -2.887238   -1.046520
 C         -1.711320    1.515412   -0.105305
 N         -2.369225   -0.813641   -0.133445
 C         -3.032246    1.901670   -0.098152
 H         -0.920267    2.258644   -0.097396
 C         -3.627409   -0.424069   -0.126690
 C         -4.064304    0.928542   -0.107675
 H         -3.274542    2.959314   -0.084372
 H         -4.365247   -1.226484   -0.136568
 C         -5.456405    1.282205   -0.097256
 C         -6.023275    2.559242   -0.079416
 S         -6.733483    0.069394   -0.102602
 C         -7.420930    2.564817   -0.069783
 H         -5.431081    3.466497   -0.073428
 C         -7.999038    1.294280   -0.080115
 H         -8.004495    3.477838   -0.055725
 C         -9.395426    0.953113   -0.072101
 C        -10.417107    1.933599   -0.043185
 C         -9.843305   -0.396214   -0.091124
 C        -11.743374    1.557614   -0.032455
 H        -10.165965    2.988969   -0.027917
 N        -11.106716   -0.772295   -0.081646
 H         -9.113929   -1.205304   -0.115466
 C        -12.076139    0.180011   -0.051242
 H        -12.526857    2.308129   -0.007855
 C        -13.455328   -0.245646   -0.035955
 C        -14.617371    0.552764    0.010727
 N        -13.881772   -1.567616   -0.060766
 C        -15.068967    1.933078    0.060795
 C        -15.756332   -0.275847    0.017657
 C        -15.304888   -1.658248   -0.029238
 C        -13.090397   -2.793724   -0.118080
 N        -16.496150    1.839997    0.097531
 O        -14.473998    3.009222    0.072385
 C        -16.916903    0.520366    0.072656
 O        -15.905051   -2.731348   -0.044076
 H        -13.808795   -3.614135   -0.134747
 H        -12.440455   -2.879830    0.753581
 H        -12.471660   -2.816330   -1.015995
 C        -17.288835    3.065584    0.149941
 C        -18.304200    0.090936    0.101914
 H        -16.571427    3.887012    0.148089
 H        -17.949193    3.139551   -0.714990
 H        -17.897057    3.097867    1.054621
 C        -18.631081   -1.282854    0.064361
 N        -19.268162    1.039864    0.165365
 C        -19.962325   -1.659137    0.087399
 H        -17.847751   -2.032035    0.009185
 C        -20.536062    0.660086    0.195358
 C        -20.975800   -0.683233    0.158254
 H        -20.218867   -2.712385    0.035621
 H        -21.265655    1.466116    0.263465
 C        -22.386967   -1.038427    0.196942
 C        -22.950585   -2.274069    0.452572
 S        -23.653873    0.146031   -0.099010
 C        -24.370719   -2.273612    0.416526
 H        -22.363422   -3.156299    0.681626
 C        -24.893768   -1.039713    0.131478
 H        -24.978872   -3.152524    0.598988
 H        -25.933453   -0.755177    0.039858
