       161
S0: Total Energy = -6780.34955195
 C        -26.543548   -0.373018   -0.206891
 C        -25.481837    0.378214    0.293687
 N        -25.997653   -1.465849   -0.871432
 C        -25.165798    1.577116    1.049458
 C        -24.255081   -0.248356   -0.061403
 C        -24.569154   -1.445542   -0.816824
 C        -26.666940   -2.559876   -1.569088
 N        -23.738190    1.598386    1.101734
 O        -25.862427    2.446038    1.573006
 C        -23.191673    0.505497    0.436388
 O        -23.871843   -2.316454   -1.338454
 H        -25.871215   -3.205119   -1.943991
 H        -27.270167   -2.186150   -2.397404
 H        -27.316069   -3.117361   -0.892605
 C        -23.066625    2.689942    1.800786
 H        -23.860642    3.332268    2.184095
 H        -22.458005    2.312830    2.623790
 H        -22.422637    3.252201    1.123209
 C        -27.982388   -0.109402   -0.088857
 C        -28.434404    1.027919    0.608587
 N        -28.834233   -0.983332   -0.665161
 C        -29.804759    1.250853    0.702374
 H        -27.724493    1.712991    1.060961
 C        -30.143285   -0.750529   -0.563212
 C        -30.685356    0.348388    0.107335
 H        -30.177278    2.121114    1.235135
 H        -30.795204   -1.479360   -1.041988
 H        -31.760905    0.486041    0.157493
 C        -21.760581    0.245695    0.310348
 C        -21.300506   -0.894484   -0.381362
 N        -20.897272    1.122994    0.867347
 C        -19.937814   -1.107877   -0.495982
 H        -22.006937   -1.587492   -0.827728
 C        -19.595643    0.898331    0.756988
 C        -19.024208   -0.203635    0.081871
 H        -19.579950   -1.970032   -1.049933
 H        -18.951446    1.630542    1.242156
 C        -17.585856   -0.394608   -0.008908
 C        -16.909219   -1.543561   -0.378821
 S        -16.468719    0.941121    0.373065
 C        -15.508496   -1.362613   -0.355494
 H        -17.409032   -2.471575   -0.629084
 C        -15.098707   -0.073344    0.038809
 N        -14.399195   -2.141761   -0.630222
 C        -13.692718   -0.068058    0.014786
 C        -13.287120   -1.355066   -0.390604
 C        -14.399866   -3.553421   -0.976377
 S        -12.319464    0.956863    0.301186
 C        -11.886795   -1.523801   -0.468048
 H        -14.389657   -4.188872   -0.083283
 H        -15.290315   -3.781050   -1.566974
 H        -13.520292   -3.777241   -1.584368
 C        -11.206380   -0.367613   -0.129223
 H        -11.389857   -2.436433   -0.774095
 C         -9.767116   -0.164667   -0.094796
 C         -8.857921   -1.241178   -0.129755
 C         -9.190015    1.123311   -0.029996
 C         -7.494344   -1.006150   -0.108073
 H         -9.220065   -2.264061   -0.158443
 N         -7.887202    1.365846    0.001744
 H         -9.830331    2.004422   -0.014381
 C         -7.027987    0.323713   -0.037897
 H         -6.791417   -1.833014   -0.136103
 C         -5.595991    0.603103   -0.007024
 C         -4.535278   -0.302727   -0.060298
 N         -5.042750    1.877129    0.079597
 C         -4.226378   -1.716992   -0.159239
 C         -3.306517    0.409815   -0.010611
 C         -3.615383    1.824452    0.081969
 C         -5.708352    3.172729    0.173346
 N         -2.798973   -1.769000   -0.166759
 O         -4.928919   -2.726351   -0.224654
 C         -2.245716   -0.495102   -0.078757
 O         -2.913026    2.833527    0.154237
 H         -4.910696    3.913640    0.242877
 H         -6.345861    3.222739    1.057186
 H         -6.322564    3.363538   -0.707762
 C         -2.133002   -3.065223   -0.248264
 C         -0.813939   -0.213643   -0.068616
 H         -2.930351   -3.809026   -0.280612
 H         -1.517638   -3.134857   -1.146292
 H         -1.496557   -3.234159    0.621527
 C         -0.349126    1.113389    0.049397
 N          0.046662   -1.250026   -0.175069
 C          1.013958    1.350796    0.061893
 H         -1.052894    1.935370    0.136531
 C          1.349198   -1.003751   -0.171661
 C          1.924881    0.281346   -0.054509
 H          1.374279    2.368223    0.176755
 H          1.990604   -1.877621   -0.279149
 C          3.363431    0.490262   -0.059378
 C          4.040004    1.686817   -0.218756
 S          4.482034   -0.881384    0.156274
 C          5.440688    1.512619   -0.172682
 H          3.540003    2.633566   -0.383699
 C          5.851995    0.178250    0.016611
 N          6.548992    2.334665   -0.264863
 C          7.258386    0.183981    0.029166
 C          7.661967    1.521194   -0.155928
 C          6.546175    3.760340   -0.546850
 S          8.634552   -0.864107    0.194641
 C          9.062062    1.708036   -0.170492
 H          6.560974    3.959799   -1.624572
 H          5.652537    4.213500   -0.111603
 H          7.422129    4.222250   -0.085501
 C          9.744881    0.518408    0.009971
 H          9.557406    2.664448   -0.287117
 C         11.185043    0.322339    0.052416
 C         12.087447    1.307762   -0.396190
 C         11.769609   -0.863129    0.550713
 C         13.452154    1.089686   -0.327347
 H         11.718882    2.239255   -0.814308
 N         13.073919   -1.092426    0.614868
 H         11.134478   -1.663582    0.928312
 C         13.926680   -0.135945    0.186196
 H         14.149873    1.846022   -0.673236
 C         15.360533   -0.397185    0.263498
 C         16.414151    0.435710   -0.115975
 N         15.923562   -1.572701    0.751687
 C         16.712651    1.740446   -0.676461
 C         17.648211   -0.222801    0.137347
 C         17.350490   -1.526173    0.699726
 C         15.267633   -2.766999    1.274553
 N         18.139084    1.787888   -0.726566
 O         16.002620    2.671939   -1.057432
 C         18.702309    0.612272   -0.238721
 O         18.060147   -2.458199    1.080758
 H         16.070475   -3.454273    1.545120
 H         14.621611   -3.221351    0.522004
 H         14.663753   -2.531052    2.151986
 C         18.794784    2.981617   -1.251505
 C         20.135760    0.354836   -0.156310
 H         17.991786    3.666006   -1.528793
 H         19.436483    3.440410   -0.498046
 H         19.403243    2.742783   -2.124914
 C         20.612849   -0.872316    0.351248
 N         20.987487    1.316411   -0.576186
 C         21.977765   -1.090950    0.413037
 H         19.916256   -1.637301    0.680066
 C         22.291905    1.093965   -0.501552
 C         22.880202   -0.095907   -0.015238
 H         22.346372   -2.042734    0.782563
 H         22.925932    1.912937   -0.839021
 C         24.319998   -0.280201    0.044305
 C         25.017906   -1.268568    0.715777
 S         25.416837    0.838908   -0.807981
 C         26.415246   -1.133552    0.555778
 H         24.534460   -2.034919    1.309955
 C         26.803283   -0.036741   -0.235971
 N         27.539623   -1.819459    0.983022
 C         28.212440   -0.045429   -0.285028
 C         28.637553   -1.145963    0.479683
 C         27.564935   -2.946964    1.898424
 S         29.576215    0.809580   -0.952191
 C         30.052442   -1.300366    0.538919
 H         27.579056   -2.620169    2.944972
 H         26.683555   -3.570948    1.731859
 H         28.453224   -3.551838    1.702279
 C         30.679737   -0.322153   -0.184026
 H         30.581098   -2.077110    1.079131
 H         31.744123   -0.184674   -0.319094
       161
T1: Total Energy = -6780.31382458
 C        -26.548156   -0.464992   -0.101138
 C        -25.488535    0.410679    0.129816
 N        -25.997976   -1.703375   -0.413328
 C        -25.176839    1.784107    0.483897
 C        -24.259539   -0.284998   -0.038503
 C        -24.569260   -1.656991   -0.390728
 C        -26.663204   -2.961006   -0.740674
 N        -23.749383    1.829874    0.507754
 O        -25.877049    2.766109    0.728964
 C        -23.198138    0.591009    0.195033
 O        -23.868562   -2.639833   -0.636253
 H        -25.864625   -3.682213   -0.919941
 H        -27.282985   -2.856541   -1.632151
 H        -27.295417   -3.296204    0.082554
 C        -23.081933    3.086514    0.833688
 H        -23.878641    3.810585    1.009426
 H        -22.464644    2.982805    1.727116
 H        -22.447173    3.418279    0.010857
 C        -27.988159   -0.189827   -0.040262
 C        -28.444324    1.102312    0.286480
 N        -28.837354   -1.205067   -0.304639
 C        -29.815848    1.331846    0.336166
 H        -27.736411    1.898326    0.494352
 C        -30.147617   -0.963035   -0.251419
 C        -30.693688    0.283570    0.062982
 H        -30.191581    2.320025    0.585848
 H        -30.797327   -1.808619   -0.471265
 H        -31.770064    0.421061    0.091017
 C        -21.767046    0.314318    0.136991
 C        -21.301822   -0.976087   -0.194621
 N        -20.906337    1.320844    0.406811
 C        -19.938880   -1.207587   -0.247936
 H        -22.005696   -1.773071   -0.413639
 C        -19.604376    1.080100    0.359538
 C        -19.027579   -0.169446    0.035827
 H        -19.578869   -2.193526   -0.524402
 H        -18.963413    1.926397    0.603505
 C        -17.590242   -0.372015    0.002282
 C        -16.908652   -1.577165   -0.053397
 S        -16.475981    1.020361    0.032630
 C        -15.510544   -1.393572   -0.068172
 H        -17.406262   -2.539344   -0.058508
 C        -15.102755   -0.043262   -0.018243
 N        -14.398401   -2.214388   -0.122663
 C        -13.699860   -0.040645   -0.031333
 C        -13.288348   -1.390138   -0.087151
 C        -14.395319   -3.667624   -0.096298
 S        -12.330090    1.028571   -0.006603
 C        -11.891643   -1.570907   -0.100229
 H        -14.376497   -4.053581    0.929414
 H        -15.288711   -4.040309   -0.602449
 H        -13.519387   -4.037692   -0.634051
 C        -11.207434   -0.362121   -0.061723
 H        -11.394688   -2.532551   -0.131941
 C         -9.778544   -0.155818   -0.059578
 C         -8.855514   -1.229973   -0.100174
 C         -9.200714    1.139290   -0.016374
 C         -7.500069   -0.988050   -0.095429
 H         -9.208178   -2.255805   -0.135095
 N         -7.906824    1.395512   -0.011180
 H         -9.847750    2.015962    0.015903
 C         -7.027972    0.352567   -0.049546
 H         -6.794681   -1.812068   -0.125978
 C         -5.626870    0.637693   -0.041868
 C         -4.517200   -0.283295   -0.072090
 N         -5.054972    1.901029   -0.000310
 C         -4.202620   -1.707719   -0.118617
 C         -3.323446    0.418000   -0.047988
 C         -3.638219    1.842501   -0.001696
 C         -5.715317    3.202876    0.040943
 N         -2.785923   -1.766251   -0.119156
 O         -4.917813   -2.712308   -0.152489
 C         -2.213836   -0.502913   -0.076574
 O         -2.923294    2.847204    0.030945
 H         -4.918251    3.946764    0.062922
 H         -6.341040    3.291525    0.929848
 H         -6.343374    3.346253   -0.839131
 C         -2.125355   -3.067889   -0.161997
 C         -0.812944   -0.217643   -0.062886
 H         -2.922268   -3.811770   -0.189443
 H         -1.496200   -3.153510   -1.048777
 H         -1.500636   -3.214201    0.719991
 C         -0.341586    1.123282   -0.016241
 N          0.066677   -1.260298   -0.094462
 C          1.013514    1.365778   -0.001244
 H         -1.047377    1.947123    0.007754
 C          1.360388   -1.003528   -0.079659
 C          1.937440    0.291920   -0.032244
 H          1.365393    2.391821    0.034920
 H          2.008084   -1.879906   -0.106546
 C          3.365733    0.499394   -0.015129
 C          4.047867    1.709226    0.032662
 S          4.491229   -0.889648   -0.056229
 C          5.444554    1.530591    0.038473
 H          3.549262    2.670144    0.059392
 C          5.859078    0.181616   -0.011785
 N          6.552674    2.356515    0.091458
 C          7.261937    0.186535   -0.003118
 C          7.666712    1.537566    0.051140
 C          6.547566    3.809812    0.068798
 S          8.637952   -0.874711   -0.030396
 C          9.064556    1.723403    0.066249
 H          6.555511    4.198438   -0.956045
 H          5.656462    4.176303    0.583483
 H          7.425888    4.183487    0.600061
 C          9.749259    0.519328    0.030346
 H          9.559902    2.685376    0.117495
 C         11.187426    0.318904    0.035007
 C         12.094124    1.380407   -0.166177
 C         11.770192   -0.951283    0.246994
 C         13.457759    1.149792   -0.142964
 H         11.729816    2.385354   -0.354483
 N         13.073236   -1.191309    0.263940
 H         11.133517   -1.817668    0.422403
 C         13.929692   -0.162753    0.074147
 H         14.157766    1.965290   -0.296381
 C         15.361488   -0.437652    0.098469
 C         16.419440    0.461391   -0.049705
 N         15.920326   -1.698875    0.285368
 C         16.723321    1.864393   -0.261201
 C         17.650541   -0.241761    0.047422
 C         17.347283   -1.643836    0.263040
 C         15.259450   -2.985602    0.478413
 N         18.150229    1.920282   -0.277817
 O         16.016893    2.862729   -0.407748
 C         18.708742    0.659089   -0.092260
 O         18.053460   -2.643032    0.406432
 H         16.059828   -3.720869    0.572351
 H         14.622081   -3.230761   -0.372479
 H         14.645581   -2.980824    1.380159
 C         18.811308    3.206172   -0.476898
 C         20.141047    0.386476   -0.057316
 H         18.011045    3.938843   -0.590035
 H         19.437257    3.462345    0.379103
 H         19.437024    3.191389   -1.370342
 C         20.612824   -0.929875    0.132554
 N         20.997210    1.420816   -0.211644
 C         21.976976   -1.160225    0.154002
 H         19.912744   -1.751243    0.250316
 C         22.300792    1.183646   -0.179002
 C         22.883877   -0.091654   -0.000112
 H         22.341757   -2.175277    0.276234
 H         22.938454    2.059598   -0.291808
 C         24.322920   -0.289101    0.027138
 C         25.013153   -1.413782    0.443509
 S         25.429308    0.999782   -0.517550
 C         26.411999   -1.249541    0.332011
 H         24.523645   -2.299640    0.830187
 C         26.809172    0.005436   -0.165511
 N         27.530867   -2.024361    0.586584
 C         28.218659    0.002145   -0.205705
 C         28.634726   -1.253880    0.269839
 C         27.544922   -3.342687    1.196273
 S         29.589900    0.986912   -0.636884
 C         30.048642   -1.425377    0.297100
 H         27.568357   -3.283767    2.290906
 H         26.653707   -3.894839    0.888376
 H         28.423432   -3.892370    0.850337
 C         30.684198   -0.303647   -0.162149
 H         30.571173   -2.313052    0.634097
 H         31.749944   -0.142820   -0.253740
       161
S1: Total Energy = -6780.29336611
 C        -26.518628   -0.481721    0.165342
 C        -25.457901    0.424444    0.112504
 N        -25.964303   -1.757400    0.188248
 C        -25.148698    1.843118    0.065957
 C        -24.229891   -0.289020    0.102603
 C        -24.536903   -1.704787    0.150387
 C        -26.625887   -3.057204    0.242891
 N        -23.723910    1.896272    0.030831
 O        -25.852686    2.853534    0.054212
 C        -23.166466    0.619440    0.053260
 O        -23.833994   -2.717708    0.160045
 H        -25.825747   -3.798772    0.243058
 H        -27.274958   -3.204061   -0.621433
 H        -27.228127   -3.153347    1.147321
 C        -23.060216    3.194615   -0.026888
 H        -23.858452    3.938106   -0.036511
 H        -22.416594    3.345705    0.840923
 H        -22.452259    3.284583   -0.928310
 C        -27.956556   -0.201952    0.193010
 C        -28.415796    1.130554    0.162118
 N        -28.805673   -1.250968    0.247770
 C        -29.786711    1.364300    0.189249
 H        -27.709053    1.953202    0.118268
 C        -30.115668   -1.003258    0.272934
 C        -30.663715    0.281152    0.245846
 H        -30.163516    2.382952    0.166303
 H        -30.764228   -1.876868    0.317080
 H        -31.739954    0.420779    0.268558
 C        -21.741300    0.339468    0.030831
 C        -21.272350   -0.994452    0.048267
 N        -20.876870    1.381943   -0.005391
 C        -19.912284   -1.232765    0.028435
 H        -21.976173   -1.820537    0.079693
 C        -19.577497    1.135828   -0.024426
 C        -18.996908   -0.156132   -0.009493
 H        -19.556021   -2.257735    0.045510
 H        -18.937283    2.016952   -0.056036
 C        -17.565520   -0.358125   -0.032546
 C        -16.880270   -1.567708   -0.062313
 S        -16.446950    1.035085   -0.020938
 C        -15.487153   -1.386381   -0.078197
 H        -17.376947   -2.529916   -0.072062
 C        -15.074743   -0.031990   -0.053850
 N        -14.376192   -2.209198   -0.121186
 C        -13.677192   -0.031440   -0.067851
 C        -13.265041   -1.386509   -0.100623
 C        -14.375250   -3.662312   -0.078319
 S        -12.305087    1.036461   -0.062267
 C        -11.873054   -1.569546   -0.111402
 H        -14.361626   -4.035927    0.951907
 H        -15.266698   -4.039375   -0.584628
 H        -13.497206   -4.038987   -0.607814
 C        -11.184387   -0.358661   -0.094350
 H        -11.376965   -2.531848   -0.127456
 C         -9.758500   -0.157336   -0.098010
 C         -8.838091   -1.235582   -0.119979
 C         -9.176163    1.136443   -0.079922
 C         -7.482064   -0.996878   -0.122113
 H         -9.193755   -2.260920   -0.134918
 N         -7.880650    1.386844   -0.081832
 H         -9.819799    2.016186   -0.062907
 C         -7.007305    0.341986   -0.102309
 H         -6.776554   -1.822126   -0.138213
 C         -5.596469    0.619437   -0.102676
 C         -4.517802   -0.293308   -0.117288
 N         -5.028667    1.894010   -0.086171
 C         -4.211030   -1.714273   -0.136532
 C         -3.301114    0.414261   -0.108716
 C         -3.608806    1.835426   -0.088998
 C         -5.688856    3.194550   -0.069097
 N         -2.791384   -1.773190   -0.138169
 O         -4.922755   -2.722860   -0.149943
 C         -2.222573   -0.498282   -0.121034
 O         -2.897408    2.844088   -0.076686
 H         -4.889430    3.936853   -0.063322
 H         -6.312416    3.306370    0.819267
 H         -6.318298    3.326392   -0.950545
 C         -2.131477   -3.073586   -0.156699
 C         -0.812963   -0.219880   -0.115452
 H         -2.931185   -3.815539   -0.168009
 H         -1.504568   -3.183086   -1.043096
 H         -1.505657   -3.209024    0.726886
 C         -0.339453    1.120519   -0.095982
 N          0.062350   -1.264361   -0.128062
 C          1.015139    1.361073   -0.087731
 H         -1.046364    1.944613   -0.087034
 C          1.356930   -1.012427   -0.120347
 C          1.937388    0.282588   -0.099080
 H          1.369308    2.386852   -0.072033
 H          2.001856   -1.891461   -0.131148
 C          3.360562    0.485654   -0.087781
 C          4.046118    1.701769   -0.065214
 S          4.484152   -0.907909   -0.101841
 C          5.435107    1.523070   -0.056206
 H          3.546305    2.661942   -0.058637
 C          5.853658    0.165065   -0.079476
 N          6.542205    2.349332   -0.021474
 C          7.245616    0.169519   -0.072337
 C          7.656525    1.530786   -0.044803
 C          6.536877    3.803272   -0.060464
 S          8.620013   -0.895382   -0.080371
 C          9.042923    1.716004   -0.039589
 H          6.548753    4.178257   -1.089925
 H          5.643542    4.174033    0.446775
 H          7.413054    4.181988    0.470480
 C          9.735802    0.503247   -0.055291
 H          9.537596    2.678972   -0.027007
 C         11.159692    0.309147   -0.052659
 C         12.075439    1.391106   -0.037901
 C         11.746795   -0.984473   -0.062772
 C         13.432881    1.156350   -0.032605
 H         11.716676    2.415172   -0.030672
 N         13.043238   -1.227150   -0.057409
 H         11.107395   -1.866929   -0.075171
 C         13.909391   -0.179402   -0.041613
 H         14.134543    1.984566   -0.021225
 C         15.325800   -0.454787   -0.032939
 C         16.394889    0.460923   -0.015845
 N         15.892708   -1.727417   -0.038202
 C         16.697906    1.881837   -0.000994
 C         17.617509   -0.243674   -0.009568
 C         17.315493   -1.665582   -0.024010
 C         15.235526   -3.030391   -0.055543
 N         18.123183    1.942394    0.014406
 O         15.988789    2.889117   -0.000459
 C         18.686058    0.671129    0.009860
 O         18.027516   -2.670814   -0.025658
 H         16.037080   -3.770261   -0.054989
 H         14.618037   -3.145775   -0.947483
 H         14.602361   -3.161516    0.823141
 C         18.781226    3.245213    0.030190
 C         20.108176    0.395176    0.024844
 H         17.980122    3.985519    0.023934
 H         19.395291    3.362705    0.924116
 H         19.418141    3.372313   -0.846261
 C         20.582975   -0.937604    0.015928
 N         20.970015    1.441536    0.048714
 C         21.943993   -1.170347    0.033161
 H         19.882592   -1.766886   -0.002464
 C         22.269826    1.199396    0.064280
 C         22.855339   -0.090815    0.058573
 H         22.304042   -2.194090    0.029189
 H         22.907588    2.082576    0.081311
 C         24.289128   -0.286786    0.077084
 C         24.981497   -1.488935    0.046822
 S         25.400623    1.110099    0.149865
 C         26.377273   -1.298519    0.079588
 H         24.492118   -2.454257    0.003564
 C         26.777320    0.052551    0.142550
 N         27.495993   -2.113462    0.057363
 C         28.183965    0.061056    0.174069
 C         28.599348   -1.283794    0.129104
 C         27.504012   -3.566380    0.084368
 S         29.556871    1.132434    0.242725
 C         30.011777   -1.455450    0.157340
 H         27.455744   -3.952858    1.109079
 H         26.649249   -3.945154   -0.481074
 H         28.416706   -3.931200   -0.392029
 C         30.647715   -0.244094    0.217350
 H         30.534321   -2.404593    0.138462
 H         31.713803   -0.063872    0.251252
