       116
S0: Total Energy = -5437.35090770
 C        -19.447822    0.182785    0.515949
 C        -18.294479    0.935254    0.301202
 N        -19.058354   -1.147596    0.623096
 C        -17.817856    2.290482    0.090977
 C        -17.167255    0.068067    0.272238
 C        -17.642547   -1.286472    0.480004
 C        -19.869870   -2.339619    0.852185
 N        -16.403225    2.150945   -0.054940
 O        -18.387194    3.379832    0.031803
 C        -16.013147    0.819942    0.052934
 O        -17.072091   -2.375770    0.541224
 H        -19.170609   -3.176649    0.872815
 H        -20.598457   -2.477587    0.052343
 H        -20.405246   -2.273144    1.800169
 C        -15.589109    3.341766   -0.279115
 H        -16.285060    4.181725   -0.288208
 H        -14.855257    3.470528    0.517705
 H        -15.059973    3.281945   -1.231161
 C        -20.835175    0.650581    0.618103
 C        -21.124443    2.024483    0.505263
 N        -21.799434   -0.271818    0.819910
 C        -22.449819    2.436495    0.606262
 H        -20.326963    2.742366    0.342059
 C        -23.062660    0.144689    0.913578
 C        -23.446493    1.484176    0.814742
 H        -22.697711    3.490754    0.522519
 H        -23.809048   -0.631075    1.076215
 H        -24.491872    1.764053    0.899008
 C        -14.633544    0.351120   -0.053615
 C        -14.334578   -1.020977    0.078058
 N        -13.662556    1.262552   -0.279020
 C        -13.016714   -1.434575   -0.018278
 H        -15.126574   -1.740248    0.262110
 C        -12.406961    0.848168   -0.378411
 C        -11.993853   -0.496266   -0.256556
 H        -12.777857   -2.486023    0.106494
 H        -11.670806    1.625639   -0.579195
 C        -10.598303   -0.893058   -0.374709
 C        -10.082292   -2.158288   -0.580269
 S         -9.290642    0.276704   -0.260670
 C         -8.672168   -2.197815   -0.661518
 H        -10.704484   -3.038010   -0.699703
 C         -8.072281   -0.959977   -0.517097
 H         -8.110942   -3.108030   -0.843508
 C         -6.670364   -0.621444   -0.547143
 C         -6.077064    0.624650   -0.627753
 S         -5.440814   -1.875111   -0.472050
 C         -4.664724    0.583570   -0.646101
 H         -6.646515    1.545437   -0.694808
 C         -4.142829   -0.695016   -0.579950
 H         -4.044782    1.469940   -0.727897
 C         -2.762545   -1.114076   -0.586078
 C         -2.239130   -2.386396   -0.728412
 S         -1.467975    0.053686   -0.386245
 C         -0.827164   -2.427249   -0.689575
 H         -2.856752   -3.265472   -0.878190
 C         -0.233519   -1.191047   -0.519695
 H         -0.260351   -3.343164   -0.812931
 C          1.185316   -0.873160   -0.449895
 C          2.160159   -1.864880   -0.226561
 C          1.670337    0.443192   -0.607306
 C          3.501782   -1.526473   -0.178773
 H          1.865640   -2.898639   -0.075580
 N          2.950079    0.786184   -0.554801
 H          0.973611    1.258650   -0.798065
 C          3.874578   -0.176133   -0.344737
 H          4.257068   -2.287021   -0.006784
 C          5.281141    0.213331   -0.292571
 C          6.398006   -0.600766   -0.100354
 N          5.743690    1.517700   -0.436060
 C          6.802416   -1.977854    0.115248
 C          7.572132    0.199869   -0.124930
 C          7.168039    1.576670   -0.341199
 C          4.992310    2.750144   -0.653438
 N          8.226708   -1.919121    0.208742
 O          6.172363   -3.030978    0.213859
 C          8.689353   -0.614824    0.065032
 O          7.797725    2.630231   -0.438690
 H          5.734763    3.548009   -0.699713
 H          4.294520    2.933397    0.164837
 H          4.428505    2.706872   -1.586315
 C          8.978112   -3.151187    0.428529
 C         10.095967   -0.226154    0.112509
 H          8.235436   -3.948478    0.480695
 H          9.673058   -3.338159   -0.391280
 H          9.545142   -3.104143    1.359262
 C         10.468344    1.124895   -0.048652
 N         11.021622   -1.189713    0.312117
 C         11.810196    1.462704   -0.007335
 H          9.712412    1.886594   -0.212508
 C         12.301645   -0.847371    0.358145
 C         12.786794    0.469864    0.204385
 H         12.103416    2.497403   -0.154002
 H         12.999209   -1.664348    0.539014
 C         14.205701    0.786664    0.264699
 C         14.802232    2.024264    0.411777
 S         15.439338   -0.461869    0.147493
 C         16.214358    1.982555    0.443591
 H         14.237922    2.943592    0.520763
 C         16.736597    0.707866    0.318934
 H         16.833254    2.864258    0.570916
 C         18.116878    0.288078    0.311253
 C         18.639151   -0.990528    0.335007
 S         19.417814    1.471006    0.263177
 C         20.053003   -1.031157    0.310461
 H         18.019852   -1.880481    0.372837
 C         20.646638    0.215041    0.270182
 H         20.621416   -1.955023    0.315094
 C         22.052158    0.556107    0.239393
 C         22.645171    1.779715    0.003584
 S         23.284129   -0.665189    0.529290
 C         24.067223    1.741929    0.048305
 H         22.077257    2.679446   -0.208979
 C         24.558613    0.493516    0.316446
 H         24.697317    2.608729   -0.117863
 H         25.589923    0.179070    0.403343
       116
T1: Total Energy = -5437.31472481
 C        -19.483208    0.192000    0.331500
 C        -18.323262    0.938273    0.130977
 N        -19.098009   -1.134630    0.488963
 C        -17.839439    2.287248   -0.101984
 C        -17.196272    0.070936    0.161651
 C        -17.678569   -1.277200    0.393283
 C        -19.916785   -2.319475    0.729221
 N        -16.421051    2.144219   -0.199024
 O        -18.406127    3.374263   -0.209836
 C        -16.035176    0.816878   -0.041292
 O        -17.111048   -2.364351    0.502131
 H        -19.218900   -3.155159    0.797141
 H        -20.620428   -2.482297   -0.088044
 H        -20.481127   -2.224195    1.657807
 C        -15.600116    3.327749   -0.436618
 H        -16.295574    4.165896   -0.498441
 H        -14.893577    3.485227    0.379418
 H        -15.039158    3.235610   -1.367713
 C        -20.872788    0.662015    0.376186
 C        -21.157276    2.032604    0.219294
 N        -21.843853   -0.255202    0.568806
 C        -22.484972    2.446818    0.266027
 H        -20.354377    2.746197    0.064027
 C        -23.109214    0.163339    0.610038
 C        -23.488670    1.499871    0.465168
 H        -22.729252    3.498606    0.147701
 H        -23.861134   -0.608243    0.767040
 H        -24.536075    1.781624    0.507750
 C        -14.653220    0.346186   -0.088255
 C        -14.360134   -1.023494    0.078221
 N        -13.673569    1.253560   -0.292219
 C        -13.040079   -1.438883    0.037830
 H        -15.158817   -1.739305    0.246202
 C        -12.415563    0.837543   -0.336919
 C        -12.007881   -0.504917   -0.177568
 H        -12.807495   -2.488338    0.188333
 H        -11.671946    1.611886   -0.521773
 C        -10.609535   -0.903237   -0.236609
 C        -10.085847   -2.173886   -0.384228
 S         -9.306606    0.271744   -0.117660
 C         -8.674488   -2.214258   -0.415436
 H        -10.702714   -3.058527   -0.494342
 C         -8.079008   -0.971342   -0.289649
 H         -8.107885   -3.130156   -0.544564
 C         -6.678250   -0.633479   -0.281408
 C         -6.082982    0.615325   -0.309118
 S         -5.448892   -1.889461   -0.226202
 C         -4.672521    0.575979   -0.294260
 H         -6.651200    1.538342   -0.351977
 C         -4.148242   -0.705146   -0.255653
 H         -4.053165    1.466083   -0.320239
 C         -2.771058   -1.119816   -0.238090
 C         -2.245774   -2.402443   -0.245449
 S         -1.472306    0.062824   -0.200830
 C         -0.838061   -2.441917   -0.223796
 H         -2.864652   -3.293111   -0.269577
 C         -0.234802   -1.192543   -0.199370
 H         -0.277655   -3.369545   -0.227716
 C          1.175619   -0.875207   -0.175744
 C          2.175966   -1.876657   -0.175323
 C          1.650529    0.460502   -0.151696
 C          3.509561   -1.531533   -0.152634
 H          1.901606   -2.926489   -0.193160
 N          2.921132    0.815268   -0.129684
 H          0.937102    1.284801   -0.150696
 C          3.876317   -0.158423   -0.129523
 H          4.275990   -2.299541   -0.152480
 C          5.251791    0.234299   -0.105756
 C          6.430910   -0.599657   -0.101447
 N          5.723703    1.537282   -0.081655
 C          6.854955   -1.996126   -0.115375
 C          7.565718    0.191491   -0.075459
 C          7.141251    1.588405   -0.061970
 C          4.964710    2.785141   -0.074610
 N          8.272612   -1.944700   -0.096040
 O          6.220426   -3.053434   -0.138356
 C          8.744361   -0.641764   -0.071793
 O          7.775749    2.645307   -0.038928
 H          5.701819    3.588373   -0.053751
 H          4.318955    2.839671    0.802577
 H          4.342552    2.863974   -0.966876
 C          9.031755   -3.192462   -0.102306
 C         10.120520   -0.248864   -0.048755
 H          8.294632   -3.995744   -0.121008
 H          9.676397   -3.248264   -0.980232
 H          9.655139   -3.269872    0.789226
 C         10.487349    1.123855   -0.022934
 N         11.075255   -1.222403   -0.052198
 C         11.821152    1.468784    0.000163
 H          9.721192    1.892054   -0.020370
 C         12.346256   -0.867951   -0.030678
 C         12.821396    0.467476   -0.002781
 H         12.095678    2.518490    0.022684
 H         13.059532   -1.692294   -0.037281
 C         14.232021    0.784832    0.020466
 C         14.835888    2.033520    0.016404
 S         15.469371   -0.470699    0.061556
 C         16.244173    1.993933    0.040129
 H         14.276169    2.961306   -0.009092
 C         16.768632    0.711566    0.063813
 H         16.864088    2.884137    0.032644
 C         18.146513    0.296417    0.089832
 C         18.674429   -0.980612    0.028234
 S         19.443807    1.479102    0.217838
 C         20.086630   -1.018035    0.068508
 H         18.058980   -1.869831   -0.057752
 C         20.676438    0.227979    0.163259
 H         20.659186   -1.937643    0.012372
 C         22.079811    0.570470    0.221525
 C         22.679583    1.807020    0.092039
 S         23.300384   -0.666312    0.494536
 C         24.097638    1.766714    0.203366
 H         22.119464    2.717646   -0.092795
 C         24.579638    0.503859    0.416275
 H         24.732378    2.642186    0.122015
 H         25.606663    0.185016    0.532881
       116
S1: Total Energy = -5437.29015568
 C        -19.468572    0.192810   -0.195151
 C        -18.291774    0.946434   -0.132122
 N        -19.091866   -1.145767   -0.217322
 C        -17.793095    2.310409   -0.079390
 C        -17.174399    0.073722   -0.116203
 C        -17.671231   -1.287459   -0.170081
 C        -19.923885   -2.343463   -0.277010
 N        -16.375993    2.170465   -0.034873
 O        -18.355164    3.406777   -0.069044
 C        -15.994456    0.829245   -0.057350
 O        -17.111709   -2.386411   -0.178164
 H        -19.232730   -3.187468   -0.271162
 H        -20.527186   -2.357100   -1.185713
 H        -20.593467   -2.399154    0.582401
 C        -15.543234    3.366826    0.029454
 H        -16.233245    4.211748    0.034155
 H        -14.935235    3.373483    0.935403
 H        -14.878474    3.429708   -0.833407
 C        -20.852646    0.665525   -0.234023
 C        -21.127034    2.048773   -0.201798
 N        -21.837371   -0.257831   -0.301210
 C        -22.452681    2.467163   -0.240317
 H        -20.315210    2.767315   -0.148553
 C        -23.100616    0.166735   -0.337070
 C        -23.468990    1.513895   -0.309358
 H        -22.687099    3.527685   -0.216581
 H        -23.862006   -0.609982   -0.390974
 H        -24.515891    1.798989   -0.341042
 C        -14.624909    0.358868   -0.027416
 C        -14.339293   -1.028254   -0.050060
 N        -13.625172    1.275574    0.020909
 C        -13.025657   -1.448929   -0.024194
 H        -15.148717   -1.750775   -0.088708
 C        -12.373137    0.855047    0.045075
 C        -11.972759   -0.504456    0.024470
 H        -12.810539   -2.512456   -0.042365
 H        -11.617875    1.640001    0.083431
 C        -10.585018   -0.897247    0.049815
 C        -10.052922   -2.185769    0.035102
 S         -9.280019    0.285081    0.103844
 C         -8.654614   -2.231515    0.065278
 H        -10.668971   -3.076526    0.002971
 C         -8.047967   -0.974675    0.104864
 H         -8.088325   -3.156648    0.059028
 C         -6.663640   -0.654231    0.139355
 C         -6.058385    0.606507    0.182014
 S         -5.431265   -1.914940    0.127692
 C         -4.664072    0.568137    0.203678
 H         -6.629797    1.528190    0.196049
 C         -4.128408   -0.725460    0.178772
 H         -4.043171    1.456731    0.236321
 C         -2.767145   -1.121878    0.185837
 C         -2.230624   -2.414610    0.161071
 S         -1.465036    0.065998    0.224130
 C         -0.836246   -2.451146    0.171101
 H         -2.850130   -3.304707    0.136000
 C         -0.226588   -1.191341    0.204464
 H         -0.271878   -3.375877    0.154936
 C          1.173508   -0.883925    0.217295
 C          2.175492   -1.889454    0.181002
 C          1.654764    0.453538    0.264286
 C          3.507209   -1.545522    0.187815
 H          1.899400   -2.938279    0.144979
 N          2.924412    0.802670    0.271815
 H          0.942927    1.278828    0.297605
 C          3.877376   -0.172794    0.231867
 H          4.274808   -2.312589    0.156927
 C          5.258807    0.214461    0.231393
 C          6.406774   -0.611894    0.177223
 N          5.726172    1.527790    0.278237
 C          6.823641   -2.003128    0.108513
 C          7.563097    0.187485    0.186947
 C          7.146077    1.580482    0.253011
 C          4.967310    2.771650    0.352889
 N          8.246198   -1.948500    0.078037
 O          6.195778   -3.064147    0.079655
 C          8.709990   -0.636672    0.124212
 O          7.777441    2.638888    0.285739
 H          5.706665    3.572907    0.387316
 H          4.343603    2.796109    1.247725
 H          4.323385    2.891090   -0.519778
 C          9.006079   -3.192091    0.009162
 C         10.096235   -0.246369    0.105950
 H          8.267402   -3.994563   -0.005784
 H          9.618709   -3.227044   -0.892917
 H          9.661069   -3.299071    0.875192
 C         10.463539    1.123422    0.162115
 N         11.045575   -1.218333    0.032343
 C         11.797787    1.468425    0.139565
 H          9.696643    1.889653    0.220015
 C         12.317918   -0.866834    0.012169
 C         12.795352    0.467155    0.061518
 H         12.073967    2.517139    0.179904
 H         13.028558   -1.691440   -0.046080
 C         14.203739    0.782146    0.033417
 C         14.810665    2.031685    0.099327
 S         15.437769   -0.469853   -0.101040
 C         16.213802    1.993783    0.045439
 H         14.251503    2.955800    0.187155
 C         16.738498    0.711381   -0.064426
 H         16.835036    2.882107    0.086765
 C         18.110231    0.304258   -0.144613
 C         18.637351   -0.975408   -0.244114
 S         19.411161    1.491584   -0.126928
 C         20.044117   -1.009348   -0.304354
 H         18.019329   -1.866415   -0.271535
 C         20.639273    0.241277   -0.253132
 H         20.613514   -1.929164   -0.383181
 C         22.039815    0.580704   -0.290820
 C         22.635241    1.827498   -0.233989
 S         23.271666   -0.669318   -0.426888
 C         24.053859    1.783881   -0.297923
 H         22.069011    2.748950   -0.148162
 C         24.543496    0.509014   -0.403382
 H         24.685192    2.664846   -0.266600
 H         25.574075    0.186979   -0.468749
