       114
S0: Total Energy = -6761.33284017
 C         -8.677394   -0.779101   -0.297932
 C         -9.347920   -1.944026   -0.675229
 S         -9.808313    0.527779    0.028594
 C        -10.752870   -1.761828   -0.704990
 C        -11.176386   -0.493264   -0.358504
 H        -11.443780   -2.548280   -0.980838
 C        -12.506026    0.068002   -0.273019
 C        -13.711884   -0.672591   -0.561082
 C        -13.820548    1.941533    0.198408
 C        -14.999459   -0.013688   -0.444874
 N        -13.795017   -1.950341   -0.939991
 C        -15.063944    1.366635   -0.044231
 N        -16.026573   -0.818828   -0.741952
 C        -16.311507    2.103034    0.097016
 C        -17.606011    1.673536   -0.109351
 S        -16.318662    3.794958    0.596544
 C        -18.604612    2.669489    0.123510
 H        -17.834112    0.662701   -0.421860
 C        -18.049087    3.861089    0.509661
 H        -18.560064    4.784245    0.751210
 S        -15.391012   -2.282552   -1.132474
 C         -8.713817   -3.264038   -1.031519
 H         -7.959997   -3.159870   -1.820222
 H         -8.222726   -3.730886   -0.168782
 H         -9.475997   -3.961615   -1.390564
 C        -20.081644    2.426786   -0.039066
 H        -20.323431    2.121944   -1.064591
 H        -20.428041    1.625916    0.625566
 H        -20.659891    3.326972    0.189303
 H        -13.767769    2.983266    0.506903
 N        -12.614764    1.340002    0.093497
 C         -7.264162   -0.511439   -0.152716
 S         -6.044542   -1.805894   -0.178532
 C         -6.661964    0.713025    0.045236
 C         -4.754840   -0.659230    0.078733
 C         -5.249206    0.652087    0.178962
 H         -7.206203    1.648762    0.088520
 C         -3.371472   -0.915984    0.176249
 C         -4.335060    1.743880    0.389316
 C         -2.460264    0.132660    0.385095
 S         -2.555905   -2.456356    0.082372
 C         -2.943341    1.484340    0.495224
 C         -1.116472   -0.322219    0.469999
 C         -0.973136   -1.685954    0.330247
 C         -3.946381    3.989442    0.681195
 H         -0.286229    0.352217    0.641815
 C         -2.540912    3.727096    0.791632
 C         -4.488804    5.390166    0.783482
 C         -1.554997    4.842152    1.018606
 H         -4.238847    5.847249    1.749085
 H         -4.068541    6.039928    0.005582
 H         -5.575055    5.369631    0.674927
 H         -0.544673    4.431294    1.070096
 H         -1.594314    5.582744    0.210044
 H         -1.765723    5.378919    1.952101
 C          0.256714   -2.445568    0.335586
 S          1.774237   -1.566323    0.192509
 C          0.488837   -3.813382    0.441950
 C          2.720112   -3.043153    0.302413
 C          1.873070   -4.127528    0.422366
 C         -0.562534   -4.884625    0.579411
 C          4.170185   -3.012001    0.260653
 H          2.244112   -5.140766    0.502758
 H         -1.146165   -5.007278   -0.341522
 H         -0.091636   -5.847328    0.798071
 H         -1.269383   -4.666802    1.387767
 C          4.895167   -1.823519    0.208965
 C          4.988728   -4.196041    0.267994
 H          4.361594   -0.875490    0.207718
 N          6.238041   -1.696657    0.161162
 C          6.433578   -4.073389    0.219716
 N          4.573334   -5.466752    0.314838
 C          7.034685   -2.761282    0.163487
 N          7.071879   -5.246064    0.231865
 S          5.917941   -6.411792    0.299168
 C          8.459507   -2.530717    0.109488
 S          9.039885   -0.880248    0.051633
 C          9.518539   -3.418309    0.093800
 C         10.713782   -1.417482   -0.000317
 C         10.797098   -2.811069    0.032960
 H          9.376152   -4.491055    0.123183
 C         11.751025   -0.412543   -0.072095
 C         12.060820   -3.631712    0.004802
 S         13.481111   -0.822979   -0.017872
 C         11.584491    0.951394   -0.178904
 H         12.665925   -3.426492   -0.886075
 H         12.693573   -3.443973    0.880709
 H         11.815622   -4.697638   -0.000564
 C         13.931704    0.857392   -0.141264
 C         12.801176    1.685371   -0.219100
 H         10.616758    1.435474   -0.232913
 C         15.232673    1.408993   -0.170738
 C         12.967452    3.110533   -0.329125
 C         15.418115    2.796412   -0.277432
 S         16.765796    0.570800   -0.088450
 C         14.275043    3.664390   -0.358237
 C         16.803897    3.161906   -0.291144
 C         17.633162    2.087002   -0.198019
 C         12.061727    5.214732   -0.504101
 H         17.143207    4.187418   -0.368170
 H         18.714892    2.076084   -0.185615
 C         13.381503    5.774680   -0.534307
 C         10.840109    6.091155   -0.585163
 C         13.594292    7.260845   -0.650094
 H         10.805456    6.807855    0.244988
 H         10.828157    6.677606   -1.512404
 H          9.942787    5.470001   -0.550456
 H         14.664507    7.477280   -0.652118
 H         13.152092    7.658034   -1.572409
 H         13.126696    7.798883    0.183964
 N         -4.813461    3.007693    0.484947
 N         -2.064100    2.494998    0.697879
 N         11.874520    3.907584   -0.403531
 N         14.456031    5.004120   -0.461961
       114
T1: Total Energy = -6761.29742648
 C          8.667584   -0.838914    0.094858
 C          9.366866   -2.047662    0.153307
 S          9.770862    0.528781   -0.002229
 C         10.768920   -1.851306    0.124417
 C         11.163221   -0.529134    0.043372
 H         11.480006   -2.666528    0.164160
 C         12.482128    0.061378   -0.008266
 C         13.707116   -0.701450    0.022564
 C         13.751461    2.018356   -0.140799
 C         14.980550   -0.008432   -0.032902
 N         13.821569   -2.029760    0.100752
 C         15.011424    1.427511   -0.118557
 N         16.029062   -0.839480    0.005462
 C         16.242373    2.201037   -0.176442
 C         17.549907    1.760598   -0.184680
 S         16.207574    3.963297   -0.250106
 C         18.525172    2.803169   -0.249717
 H         17.803483    0.709122   -0.144875
 C         17.938746    4.041230   -0.290239
 H         18.427925    5.005424   -0.341469
 S         15.428386   -2.365080    0.103133
 C          8.763112   -3.425133    0.242738
 H          8.112559   -3.533814    1.118494
 H          8.164340   -3.670206   -0.642930
 H          9.553499   -4.176803    0.322608
 C         20.010776    2.559470   -0.270384
 H         20.337900    2.024436    0.629484
 H         20.300792    1.947309   -1.133034
 H         20.566959    3.500072   -0.323249
 H         13.673143    3.101179   -0.206667
 N         12.559176    1.385019   -0.088740
 C          7.249693   -0.572439    0.105241
 S          6.035434   -1.870073    0.070118
 C          6.633373    0.664649    0.129886
 C          4.729805   -0.711081    0.088825
 C          5.218575    0.609157    0.120916
 H          7.174305    1.602743    0.158298
 C          3.347183   -0.964423    0.078026
 C          4.292656    1.713508    0.143829
 C          2.421163    0.099074    0.097799
 S          2.540462   -2.512388    0.039680
 C          2.897964    1.459899    0.131959
 C          1.082342   -0.346538    0.081627
 C          0.939858   -1.729506    0.050023
 C          3.888702    3.974017    0.197256
 H          0.243976    0.339408    0.094007
 C          2.478008    3.717126    0.185005
 C          4.425548    5.379757    0.234283
 C          1.479195    4.842804    0.208293
 H          4.089422    5.959387   -0.634478
 H          4.081145    5.916063    1.127295
 H          5.517021    5.353872    0.238772
 H          0.467380    4.432937    0.194784
 H          1.596964    5.463880    1.105006
 H          1.603400    5.506015   -0.656823
 C         -0.281688   -2.465060    0.027344
 S         -1.802838   -1.569090    0.028031
 C         -0.525546   -3.856624    0.003512
 C         -2.756786   -3.057404   -0.002319
 C         -1.888173   -4.163307   -0.012309
 C          0.530408   -4.929466   -0.003894
 C         -4.170985   -3.042197   -0.013855
 H         -2.272618   -5.174218   -0.030827
 H          1.170450   -4.879232    0.884869
 H          0.060763   -5.916550   -0.020126
 H          1.181815   -4.855862   -0.882742
 C         -4.908180   -1.806876   -0.001431
 C         -4.987190   -4.233374   -0.038798
 H         -4.346565   -0.873206    0.017748
 N         -6.209740   -1.674966   -0.010979
 C         -6.434484   -4.099671   -0.049493
 N         -4.562494   -5.493354   -0.053916
 C         -7.024106   -2.785234   -0.035156
 N         -7.086624   -5.261331   -0.072704
 S         -5.924973   -6.464861   -0.080572
 C         -8.415516   -2.536735   -0.044670
 S         -8.988408   -0.873296   -0.025459
 C         -9.500660   -3.424379   -0.068815
 C        -10.672801   -1.402828   -0.050658
 C        -10.759537   -2.811673   -0.072499
 H         -9.354650   -4.496533   -0.083436
 C        -11.700170   -0.405306   -0.046976
 C        -12.032834   -3.615341   -0.097785
 S        -13.436706   -0.805467   -0.070833
 C        -11.527204    0.970123   -0.025788
 H        -12.657503   -3.422020    0.782447
 H        -12.639160   -3.395304   -0.984551
 H        -11.800974   -4.683889   -0.111531
 C        -13.873969    0.883667   -0.051926
 C        -12.735551    1.708996   -0.028285
 H        -10.556091    1.449746   -0.008920
 C        -15.168992    1.444026   -0.058291
 C        -12.893812    3.140749   -0.010285
 C        -15.346177    2.837936   -0.041127
 S        -16.708071    0.611814   -0.086845
 C        -14.197636    3.702745   -0.016699
 C        -16.728461    3.211544   -0.051366
 C        -17.564631    2.137236   -0.075366
 C        -11.975532    5.246080    0.028328
 H        -17.061740    4.241829   -0.040883
 H        -18.646425    2.132945   -0.087358
 C        -13.291783    5.814576    0.021839
 C        -10.748624    6.118235    0.053579
 C        -13.495978    7.306267    0.039739
 H        -10.712155    6.783857   -0.817936
 H        -10.730764    6.758889    0.944190
 H         -9.855068    5.490787    0.054189
 H        -14.564954    7.528703    0.032346
 H        -13.046694    7.761326    0.931304
 H        -13.029755    7.784704   -0.830673
 N          4.766114    2.981512    0.176649
 N          2.007406    2.478802    0.152904
 N        -11.796475    3.933689    0.012365
 N        -14.370941    5.047121   -0.000210
       114
S1: Total Energy = -6761.27977388
 C          8.671959   -0.850843    0.014910
 C          9.380963   -2.063856    0.073899
 S          9.775749    0.525264   -0.016841
 C         10.775214   -1.861552    0.092577
 C         11.167341   -0.531025    0.049596
 H         11.491460   -2.671778    0.137080
 C         12.481766    0.060420    0.052401
 C         13.706120   -0.698236    0.107108
 C         13.735592    2.028559    0.000681
 C         14.977225    0.001746    0.105844
 N         13.823456   -2.027904    0.161511
 C         15.001377    1.438935    0.049888
 N         16.029790   -0.823122    0.159698
 C         16.225151    2.218911    0.044825
 C         17.536549    1.786752    0.097139
 S         16.183397    3.982258   -0.035345
 C         18.505716    2.834441    0.074968
 H         17.793331    0.736708    0.150567
 C         17.913167    4.069717    0.004667
 H         18.399045    5.036481   -0.026464
 S         15.435178   -2.356972    0.207475
 C          8.778421   -3.442553    0.115075
 H          8.138831   -3.584800    0.994490
 H          8.167713   -3.650334   -0.771755
 H          9.569189   -4.196583    0.155873
 C         19.992396    2.601893    0.123185
 H         20.280577    2.066021    1.035690
 H         20.326728    1.994805   -0.726869
 H         20.543398    3.546665    0.099468
 H         13.657518    3.112669   -0.043072
 N         12.550931    1.391813    0.001523
 C          7.265253   -0.597492   -0.018821
 S          6.050011   -1.895468    0.007380
 C          6.642604    0.647538   -0.073305
 C          4.743667   -0.733990   -0.053854
 C          5.239126    0.592982   -0.093100
 H          7.185777    1.584411   -0.097790
 C          3.370538   -0.983867   -0.064670
 C          4.313292    1.700055   -0.145969
 C          2.440091    0.084835   -0.113596
 S          2.556001   -2.531626   -0.023258
 C          2.920494    1.447762   -0.156133
 C          1.108575   -0.354962   -0.115098
 C          0.960677   -1.744232   -0.069990
 C          3.913657    3.959255   -0.233592
 H          0.270401    0.330119   -0.150537
 C          2.503334    3.703718   -0.244296
 C          4.453197    5.363230   -0.277258
 C          1.505800    4.828733   -0.300032
 H          4.125810    5.888889   -1.182833
 H          4.101184    5.953171    0.578085
 H          5.544468    5.336309   -0.261026
 H          0.493664    4.419648   -0.300968
 H          1.614268    5.502053    0.559317
 H          1.641514    5.438813   -1.201688
 C         -0.259802   -2.473460   -0.057619
 S         -1.781647   -1.573292   -0.070204
 C         -0.510969   -3.858596   -0.037178
 C         -2.733919   -3.051636   -0.048107
 C         -1.883732   -4.157442   -0.033627
 C          0.535399   -4.939641   -0.022007
 C         -4.172261   -3.022738   -0.044122
 H         -2.274626   -5.165826   -0.020246
 H          1.174290   -4.878044    0.867361
 H          0.058511   -5.923293   -0.020393
 H          1.190175   -4.887799   -0.900224
 C         -4.890972   -1.809113   -0.042653
 C         -4.981642   -4.211220   -0.039075
 H         -4.337985   -0.870562   -0.045262
 N         -6.213366   -1.672436   -0.036188
 C         -6.424772   -4.078268   -0.033988
 N         -4.553153   -5.478188   -0.039214
 C         -7.010299   -2.766849   -0.031571
 N         -7.083788   -5.246100   -0.030727
 S         -5.921025   -6.439392   -0.033673
 C         -8.423306   -2.527285   -0.022124
 S         -8.997557   -0.869343   -0.011156
 C         -9.494913   -3.412473   -0.018599
 C        -10.678850   -1.398584    0.000659
 C        -10.764290   -2.800014   -0.006362
 H         -9.348384   -4.484804   -0.024044
 C        -11.709369   -0.398132    0.018066
 C        -12.033353   -3.611649   -0.000319
 S        -13.443687   -0.805421    0.011202
 C        -11.541668    0.976175    0.041531
 H        -12.646907   -3.410141    0.886046
 H        -12.655136   -3.410269   -0.881045
 H        -11.795091   -4.679041   -0.001601
 C        -13.889067    0.881316    0.040614
 C        -12.752641    1.710770    0.054680
 H        -10.572106    1.459218    0.050863
 C        -15.185374    1.436571    0.051588
 C        -12.916852    3.141852    0.081151
 C        -15.368511    2.830238    0.077235
 S        -16.722028    0.598144    0.037191
 C        -14.223324    3.699055    0.092738
 C        -16.752219    3.197785    0.084799
 C        -17.584655    2.120270    0.065575
 C        -12.006620    5.251054    0.120000
 H        -17.089714    4.226618    0.103925
 H        -18.666499    2.111848    0.066057
 C        -13.324810    5.814284    0.132413
 C        -10.782724    6.127816    0.134838
 C        -13.534579    7.305101    0.161958
 H        -10.757567    6.795651   -0.735472
 H        -10.757813    6.766506    1.026707
 H         -9.886903    5.503652    0.124519
 H        -14.604442    7.523401    0.166496
 H        -13.078492    7.756108    1.052194
 H        -13.078680    7.791246   -0.709655
 N          4.789678    2.965104   -0.185124
 N          2.031568    2.464932   -0.205591
 N        -11.822770    3.939331    0.094987
 N        -14.401314    5.042777    0.118636
