        92
S0: Total Energy = -6048.04273818
 C        -19.024316    0.815240    0.730752
 C        -19.034242   -0.552040    0.690981
 C        -17.734706   -1.114132    0.548152
 C        -16.724879   -0.173615    0.480194
 S        -17.416722    1.446698    0.592612
 H        -17.538038   -2.175875    0.496371
 C        -15.285098   -0.357763    0.341224
 C        -14.676978   -1.653393    0.157706
 N        -15.329717   -2.818488    0.095728
 S        -14.207316   -3.996039   -0.120016
 N        -12.850096   -3.073200   -0.143837
 C        -13.230834   -1.802515    0.016917
 C        -12.349443   -0.658883    0.055621
 C        -12.991498    0.559379    0.234512
 C        -14.389609    0.701508    0.372608
 C        -10.906881   -0.773374   -0.079185
 C        -10.123592   -1.887931   -0.326399
 C         -8.743291   -1.612339   -0.410945
 C         -8.414630   -0.277776   -0.229161
 S         -9.880266    0.652429    0.058018
 H        -10.547586   -2.874725   -0.449181
 C         -7.097854    0.312546   -0.236270
 C         -6.687615    1.643441   -0.222985
 C         -5.274745    1.771584   -0.259747
 C         -4.579141    0.580110   -0.298204
 S         -5.702027   -0.765654   -0.273587
 H         -4.781650    2.738582   -0.273370
 C         -3.156365    0.360485   -0.347272
 C         -2.464381   -0.819040   -0.533514
 C         -1.050849   -0.694362   -0.537344
 C         -0.635982    0.622256   -0.350771
 S         -2.028204    1.687972   -0.153261
 H         -2.961360   -1.772553   -0.682316
 H        -19.861087    1.493629    0.830900
 H         -8.001561   -2.377889   -0.612357
 H        -19.939726   -1.144915    0.761380
 C         -7.593669    2.846415   -0.189416
 H         -8.333059    2.825657   -0.998281
 H         -8.146822    2.915688    0.755383
 H         -7.008147    3.764177   -0.295791
 C         -0.149445   -1.884409   -0.738569
 H          0.457551   -2.093059    0.150975
 H         -0.744033   -2.778221   -0.948504
 H          0.541665   -1.738411   -1.576829
 C          0.682059    1.207033   -0.301974
 C          1.007733    2.553699   -0.246828
 S          2.156815    0.247031   -0.278547
 C          2.391751    2.815764   -0.188935
 H          0.260148    3.339768   -0.256523
 C          3.182156    1.678565   -0.199593
 H          2.813543    3.810166   -0.145958
 C          4.628370    1.548176   -0.165082
 C          5.513767    2.685114   -0.068361
 C          5.272170    0.317700   -0.222096
 N          5.133318    3.964160    0.000703
 C          6.964767    2.519195   -0.035288
 C          6.672881    0.157478   -0.190161
 S          6.495762    4.874863    0.098857
 N          7.620452    3.679761    0.057592
 C          7.574472    1.211280   -0.097792
 C          9.012743    1.011579   -0.064869
 C         10.038719    1.940536   -0.024156
 S          9.690519   -0.615820   -0.089540
 C         11.329293    1.371643   -0.019099
 H          9.851646    3.005096   -0.006897
 C         11.343142   -0.013925   -0.053072
 H         12.235827    1.967225   -0.002574
 C         12.494979   -0.884381   -0.030050
 C         12.617422   -2.251365   -0.258296
 S         14.067940   -0.175547    0.339045
 C         13.963398   -2.696131   -0.155516
 C         11.492929   -3.194641   -0.597966
 C         14.881638   -1.714851    0.149242
 H         14.246438   -3.730074   -0.326518
 H         10.805730   -3.332730    0.246123
 H         10.898032   -2.835860   -1.445614
 H         11.890898   -4.178913   -0.861530
 C         16.313736   -1.825697    0.318919
 C         17.260942   -0.826685    0.373579
 S         17.083950   -3.396504    0.497641
 C         18.601165   -1.293704    0.550026
 H         17.010609    0.225123    0.273011
 C         18.652261   -2.661028    0.626849
 C         19.800353   -0.387116    0.632183
 H         19.526585   -3.286063    0.754123
 H         19.904521    0.217723   -0.276932
 H         19.714718    0.309414    1.475214
 H         20.723123   -0.960064    0.762208
 H        -14.766837    1.710240    0.512676
 H        -12.401257    1.470239    0.271697
 H          4.678227   -0.588252   -0.299377
 H          7.050152   -0.859392   -0.245645
        92
T1: Total Energy = -6048.00570928
 C        -19.029682    0.890973    0.003753
 C        -19.048221   -0.476666    0.029364
 C        -17.746356   -1.050731    0.032449
 C        -16.725914   -0.119126    0.009580
 S        -17.410923    1.508039   -0.017404
 H        -17.555054   -2.114500    0.050853
 C        -15.281716   -0.316630    0.006673
 C        -14.671038   -1.624191    0.007513
 N        -15.325860   -2.789721    0.010835
 S        -14.199437   -3.983117    0.010016
 N        -12.837268   -3.066870    0.005276
 C        -13.219460   -1.786634    0.004101
 C        -12.335040   -0.644458   -0.000138
 C        -12.980133    0.586140   -0.000993
 C        -14.382853    0.741043    0.002597
 C        -10.888415   -0.770800   -0.002803
 C        -10.096417   -1.908236   -0.007327
 C         -8.713552   -1.644116   -0.009085
 C         -8.387302   -0.294332   -0.005832
 S         -9.864900    0.663465   -0.000392
 H        -10.518260   -2.903482   -0.009371
 C         -7.071054    0.287305   -0.005936
 C         -6.653584    1.621048   -0.004685
 C         -5.245293    1.743677   -0.005319
 C         -4.548669    0.545873   -0.007028
 S         -5.679200   -0.797362   -0.007678
 H         -4.748238    2.708678   -0.004734
 C         -3.135384    0.326741   -0.007938
 C         -2.440807   -0.876598   -0.011583
 C         -1.038882   -0.764120   -0.011306
 C         -0.607941    0.576701   -0.007297
 S         -2.003522    1.668049   -0.003918
 H         -2.944142   -1.838357   -0.014604
 H        -19.866030    1.577200   -0.004504
 H         -7.965323   -2.429592   -0.012810
 H        -19.961614   -1.061267    0.045632
 C         -7.556683    2.826233   -0.003017
 H         -8.207834    2.850891   -0.884908
 H         -8.204708    2.850773    0.881193
 H         -6.962039    3.744124   -0.003964
 C         -0.140656   -1.971770   -0.015014
 H          0.508945   -2.000874    0.867840
 H         -0.739039   -2.887206   -0.017863
 H          0.509022   -1.995414   -0.897976
 C          0.696297    1.139157   -0.005495
 C          1.029791    2.506035   -0.001471
 S          2.178955    0.178392   -0.007712
 C          2.390559    2.775376   -0.000126
 H          0.275208    3.285678    0.000465
 C          3.208387    1.624700   -0.003070
 H          2.818299    3.767876    0.002943
 C          4.618550    1.518563   -0.002542
 C          5.497966    2.670893    0.001764
 C          5.275800    0.244271   -0.006061
 N          5.104253    3.942135    0.005308
 C          6.950507    2.509937    0.002673
 C          6.638378    0.095006   -0.005230
 S          6.478425    4.887454    0.009553
 N          7.612796    3.665253    0.006903
 C          7.556358    1.194707   -0.000751
 C          8.959707    0.990819    0.000341
 C         10.006508    1.931932    0.004712
 S          9.647376   -0.644798   -0.003877
 C         11.278963    1.368777    0.004725
 H          9.808126    2.994261    0.007753
 C         11.302357   -0.033293    0.000371
 H         12.185992    1.964152    0.007849
 C         12.453657   -0.876639   -0.000471
 C         12.575979   -2.273354   -0.005129
 S         14.054482   -0.121462    0.005125
 C         13.924755   -2.694227   -0.004006
 C         11.435180   -3.255551   -0.010733
 C         14.861947   -1.676502    0.001354
 H         14.202842   -3.743454   -0.006970
 H         10.793812   -3.143048    0.871550
 H         10.796598   -3.136198   -0.894131
 H         11.818500   -4.279874   -0.014098
 C         16.300038   -1.769711    0.003857
 C         17.236159   -0.755376    0.011534
 S         17.108291   -3.333420   -0.003238
 C         18.591796   -1.204231    0.011913
 H         16.963315    0.295597    0.017015
 C         18.668975   -2.573689    0.004418
 C         19.781374   -0.281569    0.019665
 H         19.560675   -3.187007    0.002919
 H         19.780440    0.374563   -0.859205
 H         19.776467    0.364860    0.905682
 H         20.719708   -0.843722    0.018692
 H        -14.762072    1.758667    0.002923
 H        -12.387735    1.496333   -0.004258
 H          4.666737   -0.654529   -0.009538
 H          7.037597   -0.914735   -0.008061
        92
S1: Total Energy = -6047.98745812
 C        -19.020915    0.871121    0.077416
 C        -19.035098   -0.497532    0.054589
 C        -17.733312   -1.068275    0.037144
 C        -16.712620   -0.133368    0.046484
 S        -17.403808    1.493477    0.078034
 H        -17.537705   -2.131186    0.018342
 C        -15.272110   -0.326680    0.034048
 C        -14.660072   -1.632114    0.014341
 N        -15.313990   -2.799026    0.005267
 S        -14.181884   -3.994041   -0.016521
 N        -12.818550   -3.068093   -0.015171
 C        -13.207539   -1.790490    0.002470
 C        -12.329472   -0.643014    0.009847
 C        -12.979717    0.593664    0.029030
 C        -14.375185    0.741746    0.040432
 C        -10.890342   -0.760796   -0.001439
 C        -10.090698   -1.902247   -0.017219
 C         -8.716433   -1.637173   -0.023953
 C         -8.386957   -0.279505   -0.013944
 S         -9.870013    0.677205    0.004396
 H        -10.515022   -2.896292   -0.023440
 C         -7.079509    0.290172   -0.016575
 C         -6.654856    1.633656   -0.010641
 C         -5.257058    1.753252   -0.016084
 C         -4.554072    0.548332   -0.026220
 S         -5.686613   -0.797151   -0.028831
 H         -4.756934    2.716564   -0.012762
 C         -3.151999    0.337110   -0.032936
 C         -2.451350   -0.870679   -0.043729
 C         -1.055686   -0.757011   -0.046665
 C         -0.624399    0.588669   -0.038131
 S         -2.017697    1.680296   -0.026655
 H         -2.955111   -1.832089   -0.049437
 H        -19.859693    1.554240    0.094027
 H         -7.966216   -2.420764   -0.036120
 H        -19.947304   -1.084377    0.050311
 C         -7.560555    2.835711   -0.000088
 H         -8.215404    2.860940   -0.879047
 H         -8.204438    2.853730    0.887139
 H         -6.968017    3.754788    0.000049
 C         -0.153799   -1.961306   -0.057642
 H          0.496867   -1.991875    0.824307
 H         -0.749304   -2.878451   -0.064270
 H          0.494636   -1.977548   -0.941594
 C          0.679820    1.149550   -0.036545
 C          1.015114    2.511607   -0.028950
 S          2.162228    0.188592   -0.041956
 C          2.383685    2.775111   -0.027113
 H          0.264705    3.295246   -0.024749
 C          3.187641    1.627421   -0.033259
 H          2.814702    3.766165   -0.021249
 C          4.616873    1.511489   -0.031855
 C          5.492060    2.660214   -0.020310
 C          5.262716    0.257578   -0.040245
 N          5.097115    3.937751   -0.012306
 C          6.941940    2.499717   -0.015703
 C          6.643824    0.106203   -0.036174
 S          6.470387    4.871262    0.000272
 N          7.606093    3.661635   -0.004208
 C          7.546380    1.189283   -0.023040
 C          8.969604    0.991777   -0.016060
 C         10.003091    1.930258   -0.000257
 S          9.656729   -0.637421   -0.025678
 C         11.285421    1.368793    0.004545
 H          9.803990    2.992541    0.007274
 C         11.309724   -0.026753   -0.007545
 H         12.189842    1.968063    0.016148
 C         12.462809   -0.875487   -0.003813
 C         12.582506   -2.270333   -0.024779
 S         14.062705   -0.122652    0.033468
 C         13.931296   -2.694019   -0.011026
 C         11.440556   -3.250530   -0.058784
 C         14.869593   -1.678094    0.020227
 H         14.207557   -3.743701   -0.023855
 H         10.791227   -3.153473    0.819694
 H         10.809612   -3.113769   -0.945239
 H         11.822364   -4.275293   -0.077708
 C         16.306614   -1.773047    0.040979
 C         17.244624   -0.760253    0.078026
 S         17.113226   -3.338144    0.019744
 C         18.598921   -1.211311    0.089824
 H         16.973199    0.290915    0.097001
 C         18.674429   -2.581067    0.061302
 C         19.789908   -0.291308    0.128753
 H         19.565413   -3.195457    0.062226
 H         19.802544    0.378262   -0.739837
 H         19.773396    0.341449    1.024443
 H         20.727206   -0.855168    0.132489
 H        -14.762414    1.756250    0.054892
 H        -12.387337    1.503915    0.035877
 H          4.660412   -0.646091   -0.049995
 H          7.036022   -0.906412   -0.042751
