        92
S0: Total Energy = -6048.04223352
 C        -16.919213   -1.014565    1.933967
 C        -17.223893    0.203399    1.385495
 C        -16.060422    0.857747    0.873513
 C        -14.887859    0.148278    1.030464
 S        -15.228069   -1.384016    1.838298
 H        -16.084551    1.830040    0.399717
 C        -13.526751    0.494488    0.638362
 C        -13.195937    1.724173   -0.041299
 N        -14.062892    2.681286   -0.387317
 S        -13.207565    3.870516   -1.126961
 N        -11.704218    3.217647   -1.037160
 C        -11.820871    2.037135   -0.421724
 C        -10.736606    1.128794   -0.133584
 C        -11.114837   -0.036164    0.519122
 C        -12.444466   -0.336647    0.888696
 C         -9.355866    1.410498   -0.494086
 C         -8.831823    2.429385   -1.265588
 C         -7.422594    2.391409   -1.440915
 C         -6.838846    1.317641   -0.779505
 S         -8.052845    0.370449    0.066673
 H         -9.458134    3.188402   -1.714991
 C         -5.446652    0.931583   -0.719856
 C         -4.315578    1.722347   -0.818568
 C         -3.102489    1.004111   -0.700501
 C         -3.271297   -0.353279   -0.503558
 S         -4.981840   -0.752738   -0.495689
 H         -4.357338    2.798695   -0.927588
 H         -2.126710    1.477555   -0.730008
 C         -2.271512   -1.378420   -0.327390
 C         -2.428352   -2.684296    0.096879
 C         -1.218280   -3.413209    0.170632
 C         -0.101994   -2.684804   -0.200613
 S         -0.579698   -1.056397   -0.673401
 H         -3.390320   -3.100453    0.377260
 H         -1.162912   -4.432668    0.530919
 C        -18.608496    0.791704    1.323464
 H        -18.656677    1.750744    1.853636
 H        -18.913686    0.980798    0.286998
 H        -19.346114    0.121017    1.774108
 C         -6.688258    3.399634   -2.284103
 H         -6.265154    4.209321   -1.674873
 H         -5.861312    2.939039   -2.834520
 H         -7.367789    3.860124   -3.007807
 C          1.284174   -3.094247   -0.235456
 C          1.817612   -4.362905   -0.429854
 C          3.237632   -4.359063   -0.403330
 C          3.818641   -3.121750   -0.202272
 S          2.560064   -1.907777   -0.009512
 H          3.829069   -5.253500   -0.546817
 C          5.222817   -2.750076   -0.141847
 C          6.288804   -3.723455   -0.119382
 N          6.132843   -5.050241   -0.154180
 S          7.631647   -5.718506   -0.108394
 N          8.535065   -4.349482   -0.041101
 C          7.689202   -3.314922   -0.051070
 C          8.063769   -1.921384   -0.003255
 C          6.996701   -1.032634   -0.025648
 C          5.643642   -1.427314   -0.095324
 C          9.447620   -1.479734    0.057818
 C         10.604762   -2.213416    0.234526
 C         11.803500   -1.451798    0.271612
 C         11.568109   -0.092143    0.110337
 S          9.852986    0.225270   -0.097835
 H         10.589380   -3.288631    0.353448
 C         12.515794    1.001062    0.095294
 C         13.838723    1.002807   -0.306079
 C         14.468166    2.266993   -0.198450
 C         13.644020    3.263655    0.283526
 S         12.054353    2.610855    0.641848
 H         14.331871    0.128503   -0.712282
 H         15.495613    2.446536   -0.497247
 C         13.938325    4.662622    0.510345
 C         13.066623    5.713209    0.709794
 C         13.717391    6.965192    0.899737
 C         15.081079    6.870898    0.844934
 S         15.599379    5.236965    0.569781
 H         11.988363    5.593119    0.702578
 H         13.189528    7.898325    1.063303
 C          1.019760   -5.615294   -0.678298
 H          1.628518   -6.358440   -1.202350
 H          0.681020   -6.075430    0.259386
 H          0.129455   -5.412786   -1.282671
 C         13.152348   -2.081500    0.497492
 H         13.671871   -2.282678   -0.448733
 H         13.803025   -1.435635    1.095971
 H         13.045374   -3.038350    1.017795
 H        -17.595697   -1.723924    2.393197
 H         15.816195    7.657501    0.949338
 H          7.195186    0.034323    0.015997
 H          4.901578   -0.634592   -0.116883
 H        -10.358718   -0.777044    0.761983
 H        -12.609045   -1.282794    1.395793
        92
T1: Total Energy = -6048.00414686
 C        -16.971308   -1.252665    1.071177
 C        -17.228707    0.068527    0.814675
 C        -16.029534    0.795813    0.538554
 C        -14.876623    0.039397    0.585325
 S        -15.282338   -1.632345    0.981606
 H        -16.014068    1.853261    0.310568
 C        -13.490977    0.434758    0.365308
 C        -13.109531    1.773394   -0.017123
 N        -13.947312    2.796910   -0.211338
 S        -13.039486    4.098865   -0.627895
 N        -11.548088    3.414424   -0.578473
 C        -11.710710    2.133977   -0.232651
 C        -10.652387    1.165230   -0.071695
 C        -11.079364   -0.104250    0.294846
 C        -12.431543   -0.450820    0.505216
 C         -9.250261    1.489889   -0.273652
 C         -8.669358    2.649379   -0.752913
 C         -7.254156    2.623921   -0.844362
 C         -6.719590    1.411139   -0.416668
 S         -7.994040    0.319205    0.106763
 H         -9.260483    3.505302   -1.049799
 C         -5.341385    0.991116   -0.366771
 C         -4.191788    1.764571   -0.279331
 C         -2.999516    1.015331   -0.239048
 C         -3.192671   -0.358299   -0.289232
 S         -4.911370   -0.716988   -0.413319
 H         -4.212709    2.843930   -0.204927
 H         -2.017010    1.467858   -0.155842
 C         -2.218156   -1.405641   -0.259211
 C         -2.413707   -2.783645   -0.246024
 C         -1.231568   -3.533590   -0.214320
 C         -0.062201   -2.760681   -0.202533
 S         -0.496884   -1.044983   -0.236488
 H         -3.400338   -3.234843   -0.253483
 H         -1.227844   -4.613583   -0.195370
 C        -18.600262    0.689715    0.820084
 H        -18.668421    1.495555    1.561102
 H        -18.841511    1.128132   -0.155985
 H        -19.370856   -0.050155    1.056137
 C         -6.463610    3.785965   -1.383702
 H         -6.029486    4.392822   -0.578155
 H         -5.638838    3.452305   -2.022354
 H         -7.108137    4.443981   -1.974045
 C          1.300350   -3.162978   -0.169585
 C          1.860211   -4.465332   -0.160666
 C          3.253621   -4.453324   -0.128347
 C          3.853198   -3.178074   -0.111020
 S          2.579389   -1.947360   -0.135199
 H          3.856166   -5.351199   -0.117881
 C          5.219620   -2.820223   -0.079757
 C          6.293004   -3.794545   -0.056494
 N          6.136792   -5.115849   -0.061122
 S          7.658843   -5.795912   -0.027332
 N          8.552235   -4.388935   -0.006473
 C          7.692101   -3.372807   -0.024894
 C          8.049332   -1.969328   -0.016647
 C          6.947686   -1.054254   -0.039239
 C          5.635175   -1.447960   -0.068356
 C          9.391220   -1.513150    0.011001
 C         10.590855   -2.242756    0.052266
 C         11.762464   -1.478206    0.075145
 C         11.507635   -0.090837    0.051008
 S          9.773674    0.215406   -0.010554
 H         10.586588   -3.323906    0.073854
 C         12.427089    1.002828    0.080222
 C         13.814286    1.010531   -0.066566
 C         14.390682    2.292192    0.003345
 C         13.478205    3.315631    0.204261
 S         11.854708    2.657482    0.325078
 H         14.396418    0.118316   -0.247983
 H         15.455661    2.468149   -0.106255
 C         13.712963    4.733101    0.318493
 C         12.794609    5.763344    0.399464
 C         13.390016    7.050030    0.501687
 C         14.758479    7.006295    0.498911
 S         15.349436    5.379603    0.375394
 H         11.722241    5.600378    0.377043
 H         12.822623    7.971494    0.571164
 C          1.076573   -5.749430   -0.185487
 H          1.756284   -6.605588   -0.186796
 H          0.422638   -5.843545    0.690060
 H          0.444603   -5.822397   -1.078837
 C         13.126272   -2.110656    0.142847
 H         13.693352   -1.955772   -0.783815
 H         13.722949   -1.700097    0.965671
 H         13.035253   -3.189234    0.296880
 H        -17.682377   -2.033447    1.308807
 H         15.458813    7.828221    0.562117
 H          7.157639    0.011077   -0.030742
 H          4.873069   -0.674716   -0.082925
 H        -10.344738   -0.893145    0.427328
 H        -12.634223   -1.478343    0.792220
        92
S1: Total Energy = -6047.98561894
 C        -16.983747   -1.426317    0.332919
 C        -17.251641   -0.087611    0.201564
 C        -16.054245    0.684050    0.107492
 C        -14.887690   -0.055295    0.165668
 S        -15.284839   -1.768560    0.344432
 H        -16.044657    1.760352   -0.000904
 C        -13.503695    0.381373    0.101419
 C        -13.125718    1.767582   -0.024739
 N        -13.970716    2.801844   -0.098087
 S        -13.061983    4.167668   -0.231236
 N        -11.559517    3.491000   -0.200056
 C        -11.722632    2.170634   -0.084311
 C        -10.660630    1.193018   -0.019872
 C        -11.087842   -0.132370    0.100353
 C        -12.435922   -0.515467    0.157856
 C         -9.264091    1.550158   -0.074966
 C         -8.668702    2.801653   -0.199579
 C         -7.261998    2.804008   -0.223625
 C         -6.720588    1.509557   -0.113888
 S         -8.012273    0.317015    0.021794
 H         -9.259507    3.704258   -0.275866
 C         -5.359262    1.088656   -0.107212
 C         -4.184563    1.855868   -0.107370
 C         -3.009419    1.103526   -0.092245
 C         -3.212519   -0.280808   -0.079474
 S         -4.941106   -0.627764   -0.092174
 H         -4.185318    2.936112   -0.105722
 H         -2.020110    1.548338   -0.085821
 C         -2.250325   -1.319764   -0.061684
 C         -2.453448   -2.704774   -0.042264
 C         -1.280916   -3.457845   -0.027481
 C         -0.102640   -2.690277   -0.034882
 S         -0.522131   -0.972462   -0.061794
 H         -3.443247   -3.148805   -0.038859
 H         -1.281218   -4.537786   -0.012575
 C        -18.634662    0.506277    0.160583
 H        -18.783949    1.221333    0.978827
 H        -18.805821    1.049185   -0.776980
 H        -19.402894   -0.267986    0.246084
 C         -6.474147    4.077507   -0.366349
 H         -5.865701    4.282816    0.523405
 H         -5.796440    4.042567   -1.227720
 H         -7.149682    4.925467   -0.506873
 C          1.255072   -3.106872   -0.023966
 C          1.801035   -4.408434    0.008253
 C          3.203489   -4.404660    0.010820
 C          3.802639   -3.142753   -0.017873
 S          2.547690   -1.905225   -0.050885
 H          3.798840   -5.307054    0.033917
 C          5.192555   -2.786124   -0.022577
 C          6.249505   -3.768771   -0.000301
 N          6.078315   -5.094763    0.025842
 S          7.590663   -5.779853    0.042805
 N          8.503382   -4.395001    0.016527
 C          7.651398   -3.363405   -0.005757
 C          8.023286   -1.969412   -0.034223
 C          6.950160   -1.056347   -0.053332
 C          5.614586   -1.441417   -0.047991
 C          9.392444   -1.530898   -0.044301
 C         10.569532   -2.272427    0.009739
 C         11.760798   -1.519090   -0.012150
 C         11.522616   -0.140586   -0.088719
 S          9.794662    0.184871   -0.143795
 H         10.553191   -3.351717    0.077285
 C         12.462122    0.943880   -0.112674
 C         13.820138    0.934704   -0.414158
 C         14.429183    2.204159   -0.352206
 C         13.566607    3.230436   -0.005193
 S         11.954651    2.590800    0.273012
 H         14.353301    0.042201   -0.712138
 H         15.477667    2.368837   -0.577714
 C         13.840782    4.638082    0.142702
 C         12.956610    5.680176    0.352125
 C         13.586414    6.950853    0.448502
 C         14.947352    6.883908    0.313658
 S         15.488983    5.253304    0.070121
 H         11.883618    5.537017    0.424369
 H         13.047706    7.878411    0.607969
 C          1.013040   -5.689384    0.039639
 H          1.689781   -6.547289    0.069245
 H          0.363464   -5.746131    0.921651
 H          0.376140   -5.797742   -0.846867
 C         13.117629   -2.164799    0.074373
 H         13.634383   -2.160264   -0.894278
 H         13.765732   -1.650600    0.792898
 H         13.021798   -3.208116    0.388105
 H        -17.693176   -2.238768    0.424798
 H         15.667762    7.690264    0.342368
 H          7.164528    0.008138   -0.069327
 H          4.866499   -0.654096   -0.062329
 H        -10.346851   -0.924730    0.152474
 H        -12.642841   -1.577433    0.250719
