        92
S0: Total Energy = -6444.95648657
 C         16.971729   -0.575889   -2.097907
 C         17.238832    0.487192   -1.273889
 C         16.048015    1.000848   -0.680030
 C         14.890467    0.339385   -1.046101
 S         15.289616   -0.967804   -2.167423
 H         16.039941    1.839369    0.002510
 C         13.524478    0.614119   -0.620360
 C         13.170176    1.674429    0.299823
 N         14.037360    2.517147    0.862077
 S         13.183483    3.537879    1.822426
 N         11.675401    2.945330    1.559120
 C         11.788251    1.925317    0.708317
 C         10.681842    1.128994    0.218928
 C         11.086728    0.137312   -0.653225
 C         12.426334   -0.104836   -1.048987
 F         10.182669   -0.694532   -1.204944
 F         12.574973   -1.129145   -1.910267
 C          9.298147    1.351546    0.604045
 C          8.795664    2.299064    1.479366
 C          7.390341    2.268780    1.662313
 C          6.785760    1.272009    0.904221
 S          7.969672    0.387157   -0.036417
 H          9.436898    2.999936    1.995485
 C          5.385627    0.916411    0.825807
 C          4.270851    1.715699    1.005933
 C          3.043416    1.032973    0.836930
 C          3.185455   -0.304602    0.519716
 S          4.887753   -0.732483    0.457315
 H          4.333848    2.777139    1.209946
 H          2.077100    1.519410    0.918566
 C          2.164892   -1.293354    0.268738
 C          2.292531   -2.557372   -0.275248
 C          1.069727   -3.259409   -0.387991
 C         -0.026961   -2.551459    0.070957
 S          0.485898   -0.979031    0.677198
 H          3.241959   -2.960302   -0.611864
 H          0.991479   -4.241720   -0.836406
 C         18.611033    1.052251   -1.018215
 H         18.667238    2.107734   -1.311132
 H         18.871149    0.998723    0.045989
 H         19.375736    0.506648   -1.578971
 C          6.680420    3.203786    2.604932
 H          6.259279    4.070635    2.078941
 H          5.854876    2.703751    3.122057
 H          7.375054    3.587599    3.358309
 C         -1.419244   -2.942626    0.098440
 C         -1.963877   -4.219115    0.191308
 C         -3.380724   -4.194497    0.204199
 C         -3.950909   -2.934891    0.127701
 S         -2.675305   -1.723825    0.017991
 H         -3.979707   -5.091009    0.283411
 C         -5.361224   -2.586744    0.126979
 C         -6.428025   -3.564240    0.192906
 N         -6.249898   -4.883646    0.259876
 S         -7.734909   -5.580950    0.317797
 N         -8.661594   -4.227216    0.259443
 C         -7.839368   -3.180105    0.192021
 C         -8.263695   -1.796801    0.123962
 C         -7.199182   -0.916913    0.062258
 C         -5.832887   -1.288772    0.064249
 F         -7.417126    0.410510   -0.003709
 F         -4.972058   -0.255270   -0.003900
 C         -9.655919   -1.382269    0.121102
 C        -10.786559   -2.180716    0.158719
 C        -12.020525   -1.483669    0.136524
 C        -11.842096   -0.105624    0.084420
 S        -10.140808    0.311612    0.072912
 H        -10.725687   -3.259746    0.187229
 C        -12.844442    0.937306    0.036847
 C        -14.129130    0.936437    0.547943
 C        -14.832140    2.146719    0.332262
 C        -14.104387    3.103506   -0.346088
 S        -12.515758    2.477448   -0.752587
 H        -14.541274    0.104210    1.104685
 H        -15.840508    2.320381    0.693000
 C        -14.491517    4.444529   -0.729359
 C        -13.696715    5.493834   -1.142565
 C        -14.427243    6.679407   -1.438753
 C        -15.774895    6.535855   -1.251828
 S        -16.180472    4.934579   -0.717503
 H        -12.616570    5.421711   -1.214667
 H        -13.965492    7.602868   -1.770548
 C         -1.179641   -5.499447    0.302787
 H         -1.791167   -6.284148    0.758409
 H         -0.857721   -5.867323   -0.680314
 H         -0.279525   -5.368256    0.912385
 C        -13.347831   -2.194412    0.136202
 H        -13.777831   -2.255594    1.144610
 H        -14.078098   -1.682078   -0.498760
 H        -13.233423   -3.219145   -0.230298
 H         17.678714   -1.158004   -2.675496
 H        -16.557447    7.268864   -1.394523
        92
T1: Total Energy = -6444.91662141
 C        -17.045473   -1.036353    1.115472
 C        -17.254366    0.249667    0.687018
 C        -16.025191    0.905392    0.382209
 C        -14.895994    0.130782    0.575199
 S        -15.372851   -1.469601    1.155910
 H        -15.969338    1.925458    0.028170
 C        -13.504222    0.500552    0.357951
 C        -13.085814    1.804589   -0.112548
 N        -13.910802    2.812390   -0.398749
 S        -12.991703    4.080607   -0.888704
 N        -11.506195    3.394185   -0.755304
 C        -11.679049    2.145688   -0.321749
 C        -10.610698    1.199983   -0.072372
 C        -11.076154   -0.021972    0.375397
 C        -12.439188   -0.351105    0.578372
 F        -10.212840   -1.015841    0.658409
 F        -12.648798   -1.605781    1.019770
 C         -9.204929    1.504323   -0.271872
 C         -8.642080    2.681506   -0.738586
 C         -7.229996    2.682150   -0.831410
 C         -6.676926    1.469822   -0.421531
 S         -7.925605    0.346720    0.082468
 H         -9.246415    3.531652   -1.022732
 C         -5.291635    1.072550   -0.382523
 C         -4.153611    1.865146   -0.300603
 C         -2.950029    1.136060   -0.265475
 C         -3.121587   -0.241490   -0.315451
 S         -4.834779   -0.628276   -0.430994
 H         -4.191176    2.943949   -0.227048
 H         -1.974554    1.604259   -0.187116
 C         -2.130727   -1.271481   -0.291168
 C         -2.305961   -2.653792   -0.280994
 C         -1.113851   -3.384775   -0.254744
 C          0.044993   -2.593470   -0.244149
 S         -0.415406   -0.883921   -0.272438
 H         -3.285762   -3.119499   -0.286344
 H         -1.093309   -4.464585   -0.237580
 C        -18.605323    0.900728    0.550853
 H        -18.684047    1.790157    1.187824
 H        -18.787837    1.225606   -0.480695
 H        -19.407587    0.212771    0.833538
 C         -6.461305    3.866727   -1.352978
 H         -6.019468    4.456624   -0.539227
 H         -5.644378    3.558986   -2.014420
 H         -7.122595    4.532799   -1.914857
 C          1.411937   -2.976447   -0.215176
 C          1.986619   -4.271995   -0.219129
 C          3.378097   -4.239458   -0.187813
 C          3.962941   -2.954765   -0.158543
 S          2.671072   -1.742252   -0.170017
 H          3.990528   -5.129691   -0.186711
 C          5.339973   -2.627273   -0.124398
 C          6.402651   -3.618853   -0.113455
 N          6.213045   -4.934225   -0.133508
 S          7.712205   -5.658560   -0.110079
 N          8.642704   -4.278860   -0.073472
 C          7.816043   -3.236904   -0.078425
 C          8.235278   -1.847170   -0.052195
 C          7.146464   -0.928863   -0.064782
 C          5.821312   -1.284993   -0.098396
 F          7.408473    0.397395   -0.043916
 F          4.928442   -0.269898   -0.105991
 C          9.595276   -1.438054   -0.016269
 C         10.743083   -2.251176    0.005891
 C         11.965677   -1.574383    0.039705
 C         11.806716   -0.173147    0.045759
 S         10.101359    0.259326   -0.000408
 H         10.664675   -3.328938    0.004351
 C         12.801729    0.851172    0.094583
 C         14.187046    0.760725   -0.047586
 C         14.854395    1.994988    0.045134
 C         14.017087    3.079007    0.260282
 S         12.349281    2.539605    0.361777
 H         14.703958   -0.168603   -0.239330
 H         15.930053    2.094330   -0.055106
 C         14.355120    4.472465    0.400928
 C         13.514651    5.562604    0.533420
 C         14.202537    6.800732    0.649303
 C         15.564090    6.660596    0.605866
 S         16.034623    5.000673    0.424488
 H         12.433230    5.476184    0.541012
 H         13.704432    7.757693    0.758266
 C          1.223954   -5.568225   -0.256711
 H          1.917116   -6.413366   -0.272508
 H          0.576311   -5.684099    0.620843
 H          0.588604   -5.639530   -1.147678
 C         13.279174   -2.307095    0.087468
 H         13.856717   -2.168076   -0.835142
 H         13.903956   -1.965330    0.920842
 H         13.109181   -3.380015    0.211138
 H        -17.791230   -1.762623    1.413335
 H         16.322612    7.429153    0.669246
        92
S1: Total Energy = -6444.89985204
 C        -17.067447   -1.189279    0.322792
 C        -17.261742    0.162739    0.188637
 C        -16.024382    0.862788    0.096421
 C        -14.899094    0.057448    0.158847
 S        -15.396855   -1.631682    0.338756
 H        -15.955503    1.936112   -0.013477
 C        -13.504640    0.458699    0.095239
 C        -13.074911    1.833145   -0.045871
 N        -13.893775    2.883104   -0.135121
 S        -12.959338    4.229550   -0.281073
 N        -11.473513    3.519591   -0.235451
 C        -11.661696    2.206956   -0.104710
 C        -10.602832    1.220999   -0.026193
 C        -11.082631   -0.077165    0.106934
 C        -12.443032   -0.433673    0.163945
 F        -10.219903   -1.109331    0.192855
 F        -12.674732   -1.755195    0.296086
 C         -9.198709    1.552015   -0.080772
 C         -8.618514    2.812206   -0.210461
 C         -7.213511    2.833445   -0.234665
 C         -6.659140    1.545137   -0.120852
 S         -7.929310    0.335541    0.018888
 H         -9.218863    3.707403   -0.289946
 C         -5.291022    1.142744   -0.114112
 C         -4.127848    1.927448   -0.114308
 C         -2.942150    1.192525   -0.098780
 C         -3.126480   -0.194797   -0.085932
 S         -4.849104   -0.567054   -0.098636
 H         -4.144283    3.007512   -0.112851
 H         -1.959269    1.651222   -0.092231
 C         -2.148976   -1.219063   -0.068214
 C         -2.332926   -2.607201   -0.049336
 C         -1.149725   -3.342584   -0.034400
 C          0.017005   -2.557029   -0.041149
 S         -0.426945   -0.845885   -0.067149
 H         -3.316207   -3.065380   -0.046975
 H         -1.133844   -4.422401   -0.021340
 C        -18.608483    0.834833    0.143483
 H        -18.720523    1.555817    0.962424
 H        -18.745363    1.387766   -0.793781
 H        -19.419228    0.104822    0.224829
 C         -6.444484    4.117934   -0.381433
 H         -5.839195    4.334539    0.507653
 H         -5.766625    4.090153   -1.242813
 H         -7.132161    4.955659   -0.524310
 C          1.381383   -2.954379   -0.030495
 C          1.941634   -4.248416    0.012713
 C          3.342919   -4.224053    0.012374
 C          3.925766   -2.952881   -0.029293
 S          2.652450   -1.733869   -0.071275
 H          3.949024   -5.118167    0.043115
 C          5.324498   -2.622235   -0.038323
 C          6.375896   -3.615764   -0.005469
 N          6.176975   -4.935617    0.034257
 S          7.672504   -5.657404    0.059808
 N          8.614151   -4.291698    0.020392
 C          7.788578   -3.241632   -0.013444
 C          8.213151   -1.858892   -0.054301
 C          7.146734   -0.947657   -0.086275
 C          5.801781   -1.303077   -0.079530
 F          7.399241    0.380146   -0.128403
 F          4.925256   -0.274932   -0.114603
 C          9.594444   -1.456635   -0.060661
 C         10.727540   -2.268659   -0.016924
 C         11.960927   -1.590289   -0.035943
 C         11.802909   -0.199547   -0.097457
 S         10.102006    0.233983   -0.140921
 H         10.647844   -3.345093    0.039448
 C         12.807690    0.825789   -0.111782
 C         14.162554    0.735550   -0.414152
 C         14.848546    1.964381   -0.342522
 C         14.050288    3.038600    0.014104
 S         12.402295    2.497530    0.287866
 H         14.639875   -0.185724   -0.718927
 H         15.904988    2.066537   -0.567530
 C         14.411359    4.424995    0.174706
 C         13.592591    5.519157    0.385168
 C         14.300323    6.746782    0.495940
 C         15.655557    6.594917    0.371077
 S         16.095716    4.935403    0.119805
 H         12.512137    5.443402    0.447429
 H         13.819969    7.705388    0.657938
 C          1.174276   -5.541367    0.059289
 H          1.864222   -6.388003    0.104196
 H          0.521710   -5.595497    0.939099
 H          0.543430   -5.672645   -0.828390
 C         13.275259   -2.319996    0.038291
 H         13.792309   -2.329436   -0.930094
 H         13.953152   -1.859825    0.765936
 H         13.115394   -3.360991    0.333082
 H        -17.823857   -1.958665    0.413976
 H         16.425095    7.354044    0.411243
