       103
S0: Total Energy = -7380.94114678
 C         -8.999002    0.392705   -0.204220
 C         -8.048254   -0.612934   -0.370360
 C         -6.726486   -0.105064   -0.374767
 C         -6.614129    1.265131   -0.214275
 S         -8.217342    1.961963   -0.045213
 H         -5.864251   -0.750583   -0.507365
 C         -5.402451    2.048056   -0.162129
 C         -5.207094    3.427748   -0.149434
 C         -3.834907    3.774527   -0.108279
 C         -2.953937    2.706614   -0.085069
 S         -3.866255    1.199534   -0.109096
 H         -3.493734    4.800168   -0.099458
 C         -1.503549    2.741056   -0.043471
 C         -0.731018    3.966433   -0.021129
 N         -1.249069    5.194427   -0.036069
 S          0.000000    6.259081   -0.000042
 N          1.249063    5.194422    0.036043
 C          0.731009    3.966430    0.021083
 C          1.503534    2.741049    0.043438
 C          0.707228    1.610266    0.020585
 C         -0.707249    1.610269   -0.020585
 F          1.266276    0.384939    0.036618
 F         -1.266303    0.384944   -0.036580
 C          2.953922    2.706597    0.085019
 C          3.834903    3.774501    0.108185
 C          5.207088    3.427708    0.149341
 C          5.402434    2.048015    0.162064
 S          3.866222    1.199506    0.109126
 H          3.493743    4.800146    0.099335
 C          6.614107    1.265080    0.214107
 C          6.726458   -0.105156    0.374259
 C          8.048226   -0.613021    0.369850
 C          8.998988    0.392662    0.204039
 S          8.217338    1.961962    0.045397
 H          5.864214   -0.750721    0.506583
 C         -6.287877    4.476690   -0.183187
 H         -5.843907    5.473590   -0.256826
 H         -6.960142    4.346113   -1.039241
 H         -6.906701    4.457263    0.722478
 C          6.287872    4.476649    0.183053
 H          6.960240    4.346008    1.039015
 H          6.906589    4.457296   -0.722690
 H          5.843908    5.473541    0.256834
 C          8.335539   -2.081493    0.541985
 H          7.407452   -2.630267    0.725664
 H          8.804446   -2.513674   -0.350395
 H          9.008706   -2.271050    1.386176
 C         -8.335582   -2.081361   -0.542862
 H         -7.407527   -2.630066   -0.726908
 H         -8.804279   -2.513812    0.349497
 H         -9.008937   -2.270681   -1.386955
 C        -10.440823    0.340091   -0.156011
 C        -11.321009    1.411871   -0.105253
 S        -11.340570   -1.166771   -0.132431
 C        -12.677488    1.042860   -0.048954
 H        -10.994350    2.446128   -0.115368
 C        -12.892179   -0.327885   -0.055128
 H        -13.489752    1.754091   -0.008781
 C        -14.157928   -1.038165   -0.012939
 C        -15.445030   -0.376016    0.055581
 C        -14.271325   -2.415244   -0.032232
 N        -15.621166    0.944741    0.088271
 C        -16.703915   -1.119611    0.096435
 C        -15.491819   -3.134462    0.007295
 F        -13.169339   -3.188206   -0.093182
 S        -17.236639    1.226262    0.163919
 N        -17.773011   -0.324812    0.157827
 C        -16.748640   -2.566202    0.071506
 F        -15.349872   -4.473379   -0.023328
 C        -17.986146   -3.334175    0.110151
 C        -19.284953   -2.858892    0.177292
 S        -18.006482   -5.101825    0.073463
 C        -20.269932   -3.881440    0.198806
 H        -19.512106   -1.803137    0.209746
 C        -19.732300   -5.139485    0.148291
 H        -21.335303   -3.685434    0.249831
 H        -20.247856   -6.090921    0.150757
 C         10.440811    0.340059    0.155902
 C         11.320995    1.411849    0.105300
 S         11.340571   -1.166795    0.132263
 C         12.677480    1.042853    0.049077
 H         10.994330    2.446104    0.115466
 C         12.892181   -0.327891    0.055157
 H         13.489741    1.754093    0.009020
 C         14.157936   -1.038161    0.013002
 C         15.445040   -0.376001   -0.055379
 C         14.271337   -2.415240    0.032203
 N         15.621174    0.944759   -0.087964
 C         16.703931   -1.119589   -0.096199
 C         15.491837   -3.134451   -0.007291
 F         13.169350   -3.188212    0.093020
 S         17.236652    1.226291   -0.163468
 N         17.773028   -0.324781   -0.157465
 C         16.748661   -2.566181   -0.071374
 F         15.349894   -4.473371    0.023227
 C         17.986172   -3.334146   -0.109991
 C         19.284982   -2.858852   -0.177010
 S         18.006513   -5.101799   -0.073462
 C         20.269968   -3.881393   -0.198512
 H         19.512132   -1.803094   -0.209374
 C         19.732340   -5.139444   -0.148102
 H         21.335342   -3.685379   -0.249435
 H         20.247902   -6.090877   -0.150572
       103
T1: Total Energy = -7380.90347178
 C          8.989358    0.375824    0.011088
 C          8.032992   -0.652610   -0.001822
 C          6.718856   -0.159559   -0.003648
 C          6.593212    1.232812    0.006418
 S          8.201606    1.953157    0.018184
 H          5.857172   -0.818644   -0.012336
 C          5.387655    1.985585    0.007363
 C          5.169872    3.381534    0.011207
 C          3.814888    3.713147    0.009440
 C          2.919219    2.625439    0.004928
 S          3.849306    1.118638    0.002682
 H          3.456184    4.732358    0.011306
 C          1.500724    2.667239    0.002548
 C          0.732439    3.900376    0.001470
 N          1.257460    5.121810    0.002548
 S         -0.000001    6.209820    0.000003
 N         -1.257461    5.121809   -0.002540
 C         -0.732439    3.900376   -0.001457
 C         -1.500724    2.667238   -0.002523
 C         -0.687133    1.499358   -0.001001
 C          0.687134    1.499358    0.001031
 F         -1.283034    0.285787   -0.001785
 F          1.283035    0.285787    0.001822
 C         -2.919219    2.625436   -0.004892
 C         -3.814890    3.713144   -0.009405
 C         -5.169873    3.381528   -0.011166
 C         -5.387654    1.985580   -0.007314
 S         -3.849304    1.118635   -0.002623
 H         -3.456187    4.732355   -0.011277
 C         -6.593210    1.232806   -0.006353
 C         -6.718855   -0.159564    0.003789
 C         -8.032991   -0.652614    0.001945
 C         -8.989356    0.375819   -0.011055
 S         -8.201603    1.953151   -0.018197
 H         -5.857172   -0.818649    0.012548
 C          6.247177    4.432519    0.016040
 H          5.799848    5.430238    0.016000
 H          6.889702    4.354423    0.901319
 H          6.895372    4.356750   -0.865276
 C         -6.247181    4.432511   -0.015999
 H         -6.889678    4.354439   -0.901300
 H         -6.895403    4.356714    0.865295
 H         -5.799854    5.430231   -0.015917
 C         -8.331661   -2.128086    0.011741
 H         -7.401099   -2.702357    0.010959
 H         -8.904511   -2.422379    0.899087
 H         -8.912838   -2.432483   -0.866637
 C          8.331661   -2.128082   -0.011541
 H          7.401098   -2.702353   -0.010698
 H          8.904482   -2.422426   -0.898888
 H          8.912865   -2.432429    0.866836
 C         10.422133    0.329866    0.019948
 C         11.297854    1.413087    0.052789
 S         11.340053   -1.169547   -0.013606
 C         12.654312    1.058498    0.051897
 H         10.960793    2.443651    0.078719
 C         12.883123   -0.313395    0.017959
 H         13.461439    1.776171    0.076206
 C         14.155782   -1.006249    0.008490
 C         15.436857   -0.328927    0.041589
 C         14.284161   -2.383586   -0.033436
 N         15.599051    0.992904    0.085853
 C         16.704362   -1.058463    0.029811
 C         15.511810   -3.087689   -0.044909
 F         13.188673   -3.166794   -0.067708
 S         17.213455    1.292603    0.110503
 N         17.765989   -0.252336    0.065673
 C         16.764466   -2.504219   -0.015729
 F         15.385647   -4.427822   -0.088293
 C         18.010186   -3.257473   -0.028978
 C         19.305570   -2.767142   -0.004895
 S         18.049926   -5.024709   -0.081274
 C         20.302072   -3.777702   -0.027652
 H         19.521397   -1.709058    0.028185
 C         19.777307   -5.041843   -0.068996
 H         21.366260   -3.569672   -0.013745
 H         20.303851   -5.986947   -0.093240
 C        -10.422131    0.329861   -0.019954
 C        -11.297851    1.413082   -0.052870
 S        -11.340053   -1.169549    0.013639
 C        -12.654308    1.058494   -0.052002
 H        -10.960787    2.443644   -0.078835
 C        -12.883121   -0.313398   -0.018010
 H        -13.461434    1.776166   -0.076363
 C        -14.155781   -1.006251   -0.008541
 C        -15.436855   -0.328927   -0.041672
 C        -14.284162   -2.383586    0.033420
 N        -15.599047    0.992903   -0.085964
 C        -16.704361   -1.058462   -0.029890
 C        -15.511813   -3.087687    0.044897
 F        -13.188675   -3.166794    0.067730
 S        -17.213450    1.292604   -0.110641
 N        -17.765986   -0.252334   -0.065780
 C        -16.764467   -2.504217    0.015687
 F        -15.385651   -4.427819    0.088318
 C        -18.010188   -3.257468    0.028942
 C        -19.305571   -2.767136    0.004838
 S        -18.049931   -5.024703    0.081279
 C        -20.302075   -3.777694    0.027609
 H        -19.521397   -1.709052   -0.028267
 C        -19.777312   -5.041835    0.068983
 H        -21.366263   -3.569663    0.013688
 H        -20.303858   -5.986938    0.093241
       103
S1: Total Energy = -7380.88798822
 C          8.989925    0.373762    0.000781
 C          8.028439   -0.654399   -0.022754
 C          6.717675   -0.158640   -0.023768
 C          6.595488    1.234688   -0.002856
 S          8.202777    1.952818    0.019124
 H          5.854011   -0.814886   -0.040751
 C          5.390671    1.992288    0.001691
 C          5.178059    3.383850    0.009637
 C          3.816495    3.718414    0.009456
 C          2.929452    2.636662    0.002768
 S          3.851342    1.131577   -0.003786
 H          3.459327    4.738259    0.013891
 C          1.494633    2.674312    0.001414
 C          0.730841    3.904259    0.001053
 N          1.259662    5.130049    0.001842
 S         -0.000000    6.210899   -0.000044
 N         -1.259663    5.130048   -0.001881
 C         -0.730841    3.904259   -0.001037
 C         -1.494633    2.674312   -0.001345
 C         -0.694533    1.518792   -0.000341
 C          0.694534    1.518792    0.000461
 F         -1.279720    0.300223   -0.000379
 F          1.279721    0.300224    0.000550
 C         -2.929452    2.636661   -0.002702
 C         -3.816494    3.718414   -0.009442
 C         -5.178058    3.383850   -0.009622
 C         -5.390671    1.992288   -0.001621
 S         -3.851342    1.131577    0.003914
 H         -3.459326    4.738258   -0.013919
 C         -6.595488    1.234689    0.002940
 C         -6.717675   -0.158639    0.023909
 C         -8.028439   -0.654397    0.022888
 C         -8.989925    0.373762   -0.000711
 S         -8.202777    1.952818   -0.019100
 H         -5.854011   -0.814884    0.040936
 C          6.254743    4.435181    0.016440
 H          5.807156    5.432772    0.015749
 H          6.895969    4.357959    0.902926
 H          6.904866    4.360349   -0.863684
 C         -6.254742    4.435180   -0.016482
 H         -6.895959    4.357920   -0.902971
 H         -6.904874    4.360387    0.863638
 H         -5.807155    5.432772   -0.015829
 C         -8.325177   -2.129543    0.044898
 H         -7.394017   -2.702597    0.055173
 H         -8.903367   -2.415498    0.931483
 H         -8.900811   -2.442501   -0.834118
 C          8.325176   -2.129545   -0.044709
 H          7.394016   -2.702600   -0.054942
 H          8.903347   -2.415537   -0.931296
 H          8.900829   -2.442468    0.834307
 C         10.416530    0.323394    0.011833
 C         11.296954    1.408293    0.047038
 S         11.334502   -1.178242   -0.019399
 C         12.648982    1.053506    0.049428
 H         10.960083    2.438951    0.071647
 C         12.878408   -0.322506    0.015774
 H         13.458035    1.768874    0.075324
 C         14.148027   -1.011477    0.008500
 C         15.428614   -0.332146    0.042756
 C         14.276563   -2.393180   -0.032413
 N         15.589267    0.989533    0.086297
 C         16.696436   -1.061925    0.032939
 C         15.500438   -3.093839   -0.042063
 F         13.178126   -3.173492   -0.067367
 S         17.205879    1.291156    0.112777
 N         17.758730   -0.255828    0.069539
 C         16.755773   -2.507039   -0.011711
 F         15.379139   -4.435258   -0.084841
 C         17.999598   -3.259046   -0.023316
 C         19.296211   -2.768152    0.002296
 S         18.041336   -5.027392   -0.075575
 C         20.292556   -3.777748   -0.019344
 H         19.510647   -1.709835    0.035628
 C         19.768736   -5.042861   -0.061347
 H         21.356677   -3.569286   -0.004207
 H         20.296412   -5.987369   -0.084954
 C        -10.416530    0.323394   -0.011795
 C        -11.296953    1.408292   -0.047065
 S        -11.334502   -1.178241    0.019474
 C        -12.648981    1.053504   -0.049481
 H        -10.960081    2.438948   -0.071706
 C        -12.878407   -0.322507   -0.015784
 H        -13.458034    1.768871   -0.075430
 C        -14.148027   -1.011477   -0.008527
 C        -15.428613   -0.332147   -0.042853
 C        -14.276564   -2.393179    0.032432
 N        -15.589263    0.989530   -0.086450
 C        -16.696435   -1.061926   -0.033055
 C        -15.500440   -3.093837    0.042065
 F        -13.178129   -3.173489    0.067452
 S        -17.205875    1.291153   -0.112998
 N        -17.758727   -0.255830   -0.069724
 C        -16.755774   -2.507039    0.011646
 F        -15.379142   -4.435255    0.084895
 C        -17.999599   -3.259045    0.023232
 C        -19.296211   -2.768151   -0.002447
 S        -18.041340   -5.027389    0.075554
 C        -20.292557   -3.777747    0.019191
 H        -19.510646   -1.709835   -0.035826
 C        -19.768739   -5.042858    0.061260
 H        -21.356678   -3.569284    0.004006
 H        -20.296416   -5.987365    0.084880
