        92
S0: Total Energy = -6444.95789802
 C        -17.000064   -0.310083    2.776142
 C        -17.297070    0.864220    2.135507
 C        -16.168107    1.377354    1.424261
 C        -15.028730    0.606186    1.524451
 S        -15.358458   -0.808525    2.527188
 H        -16.192769    2.294857    0.851472
 C        -13.705260    0.816929    0.950010
 C        -13.413526    1.889645    0.029240
 N        -14.286923    2.804649   -0.403558
 S        -13.480824    3.803603   -1.425686
 N        -11.992780    3.113737   -1.359881
 C        -12.076789    2.069187   -0.530378
 C        -10.993418    1.180498   -0.184944
 C        -11.333188    0.167444    0.700412
 C        -12.625571   -0.002956    1.244423
 C         -9.648153    1.335314   -0.717341
 C         -9.182833    2.163741   -1.719960
 C         -7.797372    2.042580   -2.008840
 C         -7.173452    1.099661   -1.200839
 S         -8.317011    0.381548   -0.076973
 H         -9.835664    2.841674   -2.253343
 C         -5.790170    0.681526   -1.192325
 C         -4.666749    1.397947   -1.558341
 C         -3.486245    0.645319   -1.403750
 C         -3.632491   -0.639135   -0.922447
 S         -5.346615   -0.941884   -0.666644
 H         -4.667968    2.429174   -1.884032
 C         -2.613559   -1.616494   -0.660250
 C         -2.760543   -2.903917   -0.186955
 C         -1.578215   -3.648977   -0.011752
 C         -0.453656   -2.927900   -0.365056
 S         -0.900524   -1.317504   -0.926781
 H         -1.569765   -4.650758    0.395518
 C        -18.641765    1.540842    2.168572
 H        -18.567622    2.551417    2.588498
 H        -19.060731    1.640986    1.159826
 H        -19.356159    0.976249    2.775012
 C         -7.128239    2.838486   -3.097512
 H         -6.624298    3.728992   -2.699226
 H         -6.374818    2.245648   -3.626566
 H         -7.866866    3.183427   -3.827299
 C          0.932405   -3.334175   -0.323312
 C          1.473951   -4.609308   -0.436872
 C          2.891770   -4.598333   -0.359498
 C          3.461640   -3.350079   -0.196556
 S          2.195506   -2.132887   -0.106206
 H          3.490121   -5.496129   -0.438181
 C          4.862029   -2.970468   -0.100772
 C          5.928330   -3.937918    0.004303
 N          5.777226   -5.265659    0.020975
 S          7.274696   -5.925074    0.152070
 N          8.171281   -4.550815    0.194064
 C          7.323695   -3.521181    0.107526
 C          7.692125   -2.125414    0.108833
 C          6.625302   -1.242247    0.006713
 C          5.276838   -1.645135   -0.097389
 C          9.071775   -1.675879    0.204668
 C         10.221484   -2.396175    0.465976
 C         11.416234   -1.629542    0.513966
 C         11.183725   -0.280604    0.275161
 S          9.478975    0.019919   -0.022004
 H         10.202755   -3.464071    0.637980
 C         12.126973    0.814993    0.251134
 C         13.469227    0.794499   -0.072134
 C         14.054185    2.074206    0.017947
 C         13.222493    3.106096    0.394017
 S         11.616872    2.447946    0.676904
 H         14.014515   -0.079512   -0.401450
 C         13.540548    4.501230    0.557514
 C         12.706838    5.530159    0.937241
 C         13.297854    6.815649    1.015844
 C         14.623320    6.767989    0.686607
 S         15.148036    5.162891    0.281984
 H         12.754434    7.707827    1.301771
 C          0.687851   -5.874976   -0.652614
 H          1.321006   -6.645624   -1.102362
 H          0.303049   -6.280858    0.292223
 H         -0.171071   -5.709793   -1.311359
 C         12.755797   -2.241823    0.825834
 H         13.322352   -2.467601   -0.087206
 H         13.372505   -1.574346    1.436559
 H         12.628337   -3.183076    1.368981
 H        -17.656665   -0.919275    3.383994
 H         15.332484    7.583822    0.656086
 H          6.819168   -0.173709    0.010129
 H          4.534575   -0.856923   -0.182010
 H        -10.575789   -0.550676    1.000744
 H        -12.761366   -0.831454    1.933157
 F         11.403319    5.325018    1.219398
 F         15.357412    2.278892   -0.265815
 F         -3.972666   -3.417256    0.107282
 F         -2.273974    1.159111   -1.696480
        92
T1: Total Energy = -6444.91944687
 C        -17.314221   -1.073114    1.093661
 C        -17.554637    0.251934    0.839723
 C        -16.346640    0.962978    0.560549
 C        -15.203944    0.190566    0.602113
 S        -15.631138   -1.475929    0.998148
 H        -16.317638    2.020473    0.334168
 C        -13.814116    0.567019    0.376776
 C        -13.414360    1.904691    0.009155
 N        -14.237073    2.943915   -0.164927
 S        -13.312054    4.236920   -0.570475
 N        -11.831408    3.528527   -0.541317
 C        -12.011930    2.246120   -0.211808
 C        -10.968521    1.258663   -0.071215
 C        -11.412180   -0.009083    0.281074
 C        -12.767974   -0.337326    0.496890
 C         -9.562792    1.564267   -0.278926
 C         -8.969003    2.715883   -0.762310
 C         -7.555140    2.672206   -0.858304
 C         -7.035894    1.452147   -0.430511
 S         -8.322186    0.378097    0.101354
 H         -9.550141    3.578914   -1.058116
 C         -5.665405    1.011561   -0.391093
 C         -4.507819    1.773169   -0.337461
 C         -3.353285    0.977856   -0.301125
 C         -3.543737   -0.395450   -0.318336
 S         -5.275472   -0.709199   -0.407450
 H         -4.476942    2.852225   -0.283597
 C         -2.559009   -1.423789   -0.285208
 C         -2.750390   -2.801185   -0.299195
 C         -1.606673   -3.596716   -0.261667
 C         -0.431684   -2.837208   -0.215334
 S         -0.828392   -1.108592   -0.218711
 H         -1.652072   -4.674837   -0.273052
 C        -18.917685    0.891481    0.850538
 H        -18.972450    1.697049    1.592919
 H        -19.156061    1.334546   -0.124105
 H        -19.697208    0.161542    1.088033
 C         -6.751219    3.823367   -1.400759
 H         -6.286235    4.409507   -0.597163
 H         -5.948859    3.481021   -2.063102
 H         -7.394165    4.502865   -1.967592
 C          0.921732   -3.261601   -0.171483
 C          1.456042   -4.575219   -0.135529
 C          2.848120   -4.588852   -0.095115
 C          3.471779   -3.324035   -0.096998
 S          2.223278   -2.068842   -0.153852
 H          3.433241   -5.497621   -0.062964
 C          4.844051   -2.992223   -0.063346
 C          5.898818   -3.986754   -0.021556
 N          5.718141   -5.304512   -0.008801
 S          7.225637   -6.012775    0.040671
 N          8.145133   -4.624060    0.045981
 C          7.305656   -3.591593    0.010194
 C          7.690346   -2.195112    0.000879
 C          6.606814   -1.259976   -0.038429
 C          5.286707   -1.628580   -0.068341
 C          9.041112   -1.765117    0.027525
 C         10.225457   -2.518279    0.083374
 C         11.411887   -1.776946    0.099067
 C         11.183249   -0.385804    0.054904
 S          9.456283   -0.044955   -0.018571
 H         10.199957   -3.598664    0.120658
 C         12.125317    0.688045    0.074976
 C         13.510056    0.655315   -0.067562
 C         14.079764    1.933721   -0.000692
 C         13.211015    2.993518    0.188063
 S         11.576761    2.355676    0.300623
 H         14.098945   -0.233041   -0.239578
 C         13.517636    4.391383    0.291778
 C         12.647892    5.446718    0.481319
 C         13.234150    6.733161    0.545981
 C         14.592255    6.662254    0.401960
 S         15.154380    5.033889    0.188128
 H         12.666027    7.643686    0.691109
 C          0.646203   -5.843017   -0.135844
 H          1.307084   -6.712169   -0.085398
 H         -0.034673   -5.890214    0.722561
 H          0.039766   -5.937599   -1.044869
 C         12.763320   -2.433736    0.180059
 H         13.336898   -2.299844   -0.745816
 H         13.363853   -2.025844    1.001410
 H         12.651579   -3.508583    0.345312
 H        -18.035054   -1.844350    1.333013
 H         15.305441    7.475138    0.407994
 H          6.836605   -0.198775   -0.042521
 H          4.540532   -0.840347   -0.095854
 H        -10.689372   -0.811600    0.395611
 H        -12.984691   -1.365660    0.770123
 F         11.318031    5.259838    0.598784
 F         15.408749    2.125797   -0.121917
 F         -3.987474   -3.331928   -0.349888
 F         -2.120216    1.515473   -0.236764
        92
S1: Total Energy = -6444.90139490
 C        -17.336888   -1.219567    0.399869
 C        -17.582486    0.122004    0.251807
 C        -16.372488    0.870425    0.138311
 C        -15.218825    0.110745    0.198197
 S        -15.644904   -1.592391    0.403784
 H        -16.344833    1.944795    0.014888
 C        -13.828228    0.521808    0.117931
 C        -13.426186    1.899662   -0.028016
 N        -14.252765    2.947925   -0.107836
 S        -13.321918    4.294905   -0.264167
 N        -11.832266    3.592646   -0.235611
 C        -12.017055    2.277002   -0.102613
 C        -10.971853    1.281387   -0.033621
 C        -11.421803   -0.034452    0.105333
 C        -12.776097   -0.392930    0.177200
 C         -9.569984    1.612792   -0.101891
 C         -8.954466    2.853056   -0.247263
 C         -7.549055    2.831295   -0.278869
 C         -7.030053    1.528239   -0.154122
 S         -8.340525    0.359057    0.005608
 H         -9.530417    3.764374   -0.332465
 C         -5.677055    1.087030   -0.148988
 C         -4.497748    1.841060   -0.176043
 C         -3.359542    1.044041   -0.152186
 C         -3.558690   -0.339420   -0.106685
 S         -5.296073   -0.641782   -0.098677
 H         -4.449172    2.918923   -0.199331
 C         -2.583710   -1.358612   -0.075338
 C         -2.783201   -2.742508   -0.031899
 C         -1.648005   -3.541313   -0.007821
 C         -0.465067   -2.787324   -0.031868
 S         -0.846048   -1.056516   -0.086201
 H         -1.697938   -4.618626    0.025973
 C        -18.955222    0.739319    0.212758
 H        -19.085722    1.467872    1.022193
 H        -19.123786    1.272256   -0.730913
 H        -19.735859   -0.020354    0.314483
 C         -6.738646    4.087769   -0.442148
 H         -6.115019    4.287998    0.438123
 H         -6.073586    4.032909   -1.312318
 H         -7.399208    4.947509   -0.580953
 C          0.884756   -3.223556   -0.017746
 C          1.408558   -4.534264    0.021986
 C          2.810233   -4.553602    0.024425
 C          3.429805   -3.300938   -0.011334
 S          2.196804   -2.042301   -0.051389
 H          3.390748   -5.465427    0.052263
 C          4.824984   -2.966927   -0.016908
 C          5.865774   -3.966375    0.009322
 N          5.674005   -5.289118    0.039116
 S          7.175062   -5.998588    0.059298
 N          8.109327   -4.628256    0.029826
 C          7.274564   -3.583308    0.003932
 C          7.668460   -2.195422   -0.027910
 C          6.609578   -1.264957   -0.051392
 C          5.268649   -1.628587   -0.046566
 C          9.043912   -1.778823   -0.035982
 C         10.209518   -2.538831    0.022700
 C         11.411945   -1.804240    0.002028
 C         11.194354   -0.422388   -0.077253
 S          9.471695   -0.069701   -0.139997
 H         10.176465   -3.617554    0.092390
 C         12.149871    0.646924   -0.095331
 C         13.510836    0.606936   -0.370144
 C         14.103430    1.877152   -0.296012
 C         13.271711    2.933623    0.023488
 S         11.647594    2.303638    0.264982
 H         14.063176   -0.277901   -0.651124
 C         13.604722    4.322910    0.161830
 C         12.771658    5.376268    0.481721
 C         13.378921    6.652867    0.549604
 C         14.716311    6.577121    0.274079
 S         15.232961    4.955008   -0.067353
 H         12.839213    7.560525    0.790207
 C          0.597593   -5.800475    0.059203
 H          1.258511   -6.670624    0.084041
 H         -0.046040   -5.845481    0.946311
 H         -0.047448   -5.897006   -0.822725
 C         12.758763   -2.470115    0.091591
 H         13.285801   -2.455775   -0.871344
 H         13.406097   -1.978417    0.826499
 H         12.645155   -3.517150    0.385883
 H        -18.059998   -2.017763    0.508436
 H         15.437962    7.382162    0.250103
 H          6.840707   -0.204081   -0.069880
 H          4.533476   -0.829273   -0.063948
 H        -10.695227   -0.839747    0.161425
 H        -13.000528   -1.449892    0.284171
 F         11.455984    5.196662    0.717123
 F         15.417520    2.061976   -0.536919
 F         -4.024125   -3.258814   -0.015192
 F         -2.119861    1.563188   -0.167599
