        92
S0: Total Energy = -5798.88569720
 C         17.235833   -0.342262   -1.820329
 C         17.423676    0.726344   -0.980300
 C         16.186875    1.192956   -0.445605
 C         15.077272    0.488294   -0.874024
 S         15.574480   -0.796228   -1.975777
 H         16.115607    2.028545    0.239026
 C         13.690829    0.719340   -0.509943
 C         13.271629    1.767950    0.391159
 N         14.013399    2.661625    1.016558
 N         11.840344    3.015453    1.582698
 C         11.890788    1.993117    0.751462
 C         10.803050    1.188565    0.243256
 C         11.254909    0.204360   -0.612528
 C         12.617595   -0.016574   -0.968037
 F         10.383121   -0.642682   -1.187339
 F         12.811754   -1.038206   -1.819988
 C          9.416989    1.406736    0.601945
 C          8.910843    2.366291    1.461927
 C          7.504627    2.338327    1.632283
 C          6.907678    1.331125    0.879733
 S          8.100139    0.434850   -0.040925
 H          9.546559    3.074500    1.977755
 C          5.508974    0.973418    0.794033
 C          4.392468    1.773978    0.959434
 C          3.167193    1.089072    0.787652
 C          3.312813   -0.251374    0.483245
 S          5.015289   -0.678755    0.436278
 H          4.453074    2.837128    1.154716
 H          2.199974    1.575326    0.858190
 C          2.294484   -1.243029    0.235721
 C          2.425375   -2.509986   -0.301245
 C          1.204427   -3.214850   -0.411006
 C          0.106033   -2.505861    0.043240
 S          0.615076   -0.929385    0.641163
 H          3.375861   -2.912887   -0.634755
 H          1.128657   -4.199757   -0.853925
 C         18.760176    1.338770   -0.655271
 H         18.793197    2.396014   -0.944831
 H         18.966921    1.292089    0.420727
 H         19.570698    0.821409   -1.176658
 C          6.785183    3.283466    2.557120
 H          6.362995    4.139982    2.015600
 H          5.959595    2.786605    3.077099
 H          7.473917    3.681765    3.308179
 C         -1.285221   -2.898940    0.071029
 C         -1.828093   -4.177497    0.163613
 C         -3.244294   -4.153782    0.178389
 C         -3.811263   -2.892611    0.103582
 S         -2.542590   -1.679872   -0.007447
 H         -3.841645   -5.052993    0.258417
 C         -5.219701   -2.558602    0.107564
 C         -6.270165   -3.548513    0.179083
 N         -6.161880   -4.860964    0.247372
 N         -8.371071   -4.325047    0.259661
 C         -7.674278   -3.207942    0.186453
 C         -8.155545   -1.846612    0.121348
 C         -7.114314   -0.941094    0.052611
 C         -5.731045   -1.276605    0.046498
 F         -7.370724    0.377448   -0.012412
 F         -4.899666   -0.222219   -0.027007
 C         -9.560341   -1.498684    0.129984
 C        -10.641995   -2.361777    0.181988
 C        -11.912112   -1.734564    0.170456
 C        -11.809332   -0.347706    0.111750
 S        -10.133084    0.163661    0.081454
 H        -10.523173   -3.437307    0.213289
 C        -12.867014    0.638428    0.072184
 C        -14.147353    0.565235    0.589641
 C        -14.915401    1.736626    0.384318
 C        -14.243596    2.735108   -0.292317
 S        -12.625833    2.198173   -0.710140
 H        -14.511384   -0.290790    1.143610
 H        -15.930032    1.853250    0.750217
 C        -14.704363    4.055071   -0.666164
 C        -13.969979    5.143880   -1.089302
 C        -14.763799    6.291545   -1.370507
 C        -16.099364    6.079672   -1.162149
 S        -16.415256    4.459509   -0.625192
 H        -12.888910    5.126314   -1.179494
 H        -14.354701    7.237641   -1.707473
 C         -1.041717   -5.456444    0.273469
 H         -1.653889   -6.244325    0.722323
 H         -0.714310   -5.818641   -0.709770
 H         -0.145307   -5.325646    0.888499
 C        -13.198668   -2.516200    0.186693
 H        -13.619524   -2.586577    1.198219
 H        -13.958342   -2.052712   -0.451279
 H        -13.030275   -3.537932   -0.166684
 H         17.991587   -0.895391   -2.363630
 H        -16.920180    6.772400   -1.290495
 O         -7.444792   -5.328731    0.296330
 O         13.136166    3.418383    1.740464
        92
T1: Total Energy = -5798.84749492
 C         17.281685   -0.725437   -0.958352
 C         17.413890    0.570905   -0.527811
 C         16.145078    1.162465   -0.258151
 C         15.066160    0.326708   -0.480905
 S         15.634956   -1.245532   -1.043088
 H         16.028853    2.180244    0.091994
 C         13.659539    0.634981   -0.299248
 C         13.181472    1.919686    0.157411
 N         13.879818    2.992460    0.475913
 N         11.674474    3.466347    0.758684
 C         11.780186    2.221452    0.337492
 C         10.729255    1.263924    0.077708
 C         11.237152    0.055410   -0.357114
 C         12.619205   -0.240806   -0.534985
 F         10.405060   -0.958684   -0.651726
 F         12.870053   -1.488573   -0.967860
 C          9.323796    1.557015    0.258471
 C          8.760883    2.741090    0.706994
 C          7.348781    2.741124    0.791334
 C          6.800624    1.521512    0.393349
 S          8.053765    0.392946   -0.090137
 H          9.361340    3.597593    0.985474
 C          5.416306    1.121439    0.351428
 C          4.278137    1.911569    0.251848
 C          3.075861    1.180227    0.218854
 C          3.249430   -0.196063    0.288317
 S          4.961743   -0.579015    0.419897
 H          4.314520    2.989312    0.164062
 H          2.100325    1.645904    0.127890
 C          2.259815   -1.228160    0.272295
 C          2.437056   -2.609812    0.274907
 C          1.245580   -3.342673    0.253739
 C          0.086490   -2.552648    0.234584
 S          0.544508   -0.842877    0.248105
 H          3.417356   -3.074345    0.285424
 H          1.226496   -4.422587    0.246584
 C         18.725956    1.289504   -0.357505
 H         18.775001    2.181950   -0.992972
 H         18.864452    1.622475    0.678156
 H         19.568788    0.643146   -0.618956
 C          6.574255    3.930321    1.292927
 H          6.135434    4.507525    0.468685
 H          5.754983    3.628724    1.954174
 H          7.230753    4.605681    1.849091
 C         -1.280533   -2.937360    0.207726
 C         -1.853632   -4.233841    0.218649
 C         -3.245323   -4.202268    0.186375
 C         -3.826054   -2.916603    0.150005
 S         -2.541040   -1.702928    0.155528
 H         -3.854926   -5.096017    0.189757
 C         -5.201980   -2.601892    0.113954
 C         -6.247421   -3.603245    0.107201
 N         -6.128990   -4.915315    0.130899
 N         -8.355328   -4.380778    0.073679
 C         -7.652798   -3.265336    0.070960
 C         -8.128409   -1.899688    0.038694
 C         -7.061605   -0.953223    0.046830
 C         -5.723587   -1.273504    0.081381
 F         -7.365137    0.362531    0.019556
 F         -4.855567   -0.238744    0.083770
 C         -9.500781   -1.555484    0.002341
 C        -10.599885   -2.434749   -0.013624
 C        -11.856795   -1.827415   -0.049789
 C        -11.775246   -0.417219   -0.063681
 S        -10.093524    0.108997   -0.024866
 H        -10.465130   -3.508214   -0.003433
 C        -12.822477    0.550984   -0.110607
 C        -14.207026    0.380254   -0.035046
 C        -14.936572    1.578855   -0.106306
 C        -14.152136    2.715540   -0.238473
 S        -12.454046    2.272307   -0.283003
 H        -14.680875   -0.583216    0.084700
 H        -16.019569    1.615525   -0.054388
 C        -14.561040    4.092617   -0.337011
 C        -13.776811    5.229485   -0.415143
 C        -14.526884    6.432871   -0.501723
 C        -15.879908    6.219862   -0.490062
 S        -16.265460    4.532844   -0.374212
 H        -12.692344    5.199923   -0.406255
 H        -14.078577    7.417872   -0.568486
 C         -1.089324   -5.528732    0.263482
 H         -1.781063   -6.374916    0.281282
 H         -0.439660   -5.646865   -0.612158
 H         -0.456266   -5.594876    1.156387
 C        -13.127757   -2.631776   -0.084521
 H        -13.731137   -2.477139    0.818524
 H        -13.750995   -2.367146   -0.946735
 H        -12.898307   -3.698552   -0.150577
 H         18.071571   -1.412717   -1.233888
 H        -16.676819    6.949443   -0.542425
 O         -7.423488   -5.402872    0.110417
 O         12.956763    3.930926    0.841262
        92
S1: Total Energy = -5798.82950848
 C         17.297061   -0.868460   -0.192950
 C         17.416698    0.496068   -0.094760
 C         16.142242    1.129541   -0.038171
 C         15.066265    0.258675   -0.092584
 S         15.652517   -1.402868   -0.218175
 H         16.015545    2.201713    0.040738
 C         13.659156    0.595149   -0.056285
 C         13.173326    1.950412    0.046717
 N         13.867116    3.071449    0.122471
 N         11.649210    3.592287    0.178934
 C         11.767283    2.282350    0.082675
 C         10.724875    1.283597    0.019166
 C         11.244464   -0.002469   -0.079660
 C         12.620430   -0.324191   -0.115020
 F         10.409588   -1.056611   -0.149627
 F         12.891936   -1.639533   -0.213717
 C          9.322654    1.603087    0.056737
 C          8.746044    2.867524    0.157015
 C          7.341357    2.889594    0.173384
 C          6.787363    1.598125    0.082891
 S          8.058926    0.384116   -0.024263
 H          9.344716    3.766710    0.220870
 C          5.419900    1.195366    0.075564
 C          4.255776    1.979607    0.070736
 C          3.071084    1.243964    0.058113
 C          3.256283   -0.143774    0.052449
 S          4.979280   -0.514840    0.067410
 H          4.271273    3.059624    0.065923
 H          2.087889    1.701958    0.049347
 C          2.280044   -1.168444    0.039217
 C          2.465474   -2.557048    0.029331
 C          1.283417   -3.293442    0.016806
 C          0.115715   -2.508810    0.016570
 S          0.557573   -0.796965    0.031691
 H          3.449214   -3.014133    0.032503
 H          1.268736   -4.373352    0.012792
 C         18.724705    1.240533   -0.051432
 H         18.807387    1.946299   -0.886791
 H         18.819489    1.822502    0.873258
 H         19.574150    0.553458   -0.105610
 C          6.571351    4.176607    0.288289
 H          5.962214    4.367850   -0.603830
 H          5.897534    4.171235    1.153267
 H          7.258431    5.018696    0.405667
 C         -1.247721   -2.907862    0.007209
 C         -1.806415   -4.203492   -0.044882
 C         -3.207236   -4.180348   -0.041935
 C         -3.787125   -2.908485    0.010684
 S         -2.520546   -1.687711    0.060534
 H         -3.809331   -5.078508   -0.079424
 C         -5.183692   -2.591749    0.024081
 C         -6.219774   -3.595787   -0.017402
 N         -6.093988   -4.909746   -0.069907
 N         -8.323046   -4.387715   -0.052303
 C         -7.625675   -3.265811   -0.006316
 C         -8.108387   -1.906590    0.047060
 C         -7.064588   -0.971198    0.087414
 C         -5.703438   -1.289845    0.077319
 F         -7.355654    0.345986    0.141878
 F         -4.856500   -0.240275    0.121905
 C         -9.502205   -1.571171    0.055976
 C        -10.585786   -2.448143    0.007739
 C        -11.854115   -1.839663    0.029713
 C        -11.772445   -0.441004    0.098207
 S        -10.096523    0.086167    0.144627
 H        -10.450522   -3.520092   -0.054022
 C        -12.830582    0.527288    0.117188
 C        -14.183179    0.359246    0.400774
 C        -14.932476    1.549971    0.341350
 C        -14.188230    2.672138    0.013215
 S        -12.510626    2.225350   -0.247897
 H        -14.615082   -0.591308    0.682159
 H        -15.995688    1.591717    0.553318
 C        -14.621769    4.038665   -0.128777
 C        -13.861196    5.177974   -0.320913
 C        -14.632616    6.367186   -0.416844
 C        -15.978549    6.141218   -0.298980
 S        -16.330952    4.458038   -0.072168
 H        -12.778076    5.160560   -0.380679
 H        -14.203848    7.352249   -0.563825
 C         -1.036657   -5.494296   -0.104774
 H         -1.724585   -6.341439   -0.166940
 H         -0.377697   -5.533934   -0.980400
 H         -0.412426   -5.637296    0.785720
 C        -13.126363   -2.639674   -0.047230
 H        -13.648424   -2.668150    0.917865
 H        -13.822328   -2.222772   -0.783793
 H        -12.908758   -3.672880   -0.331779
 H         18.095212   -1.597635   -0.252530
 H        -16.787267    6.858880   -0.331648
 O         -7.384438   -5.397501   -0.091400
 O         12.933436    4.071831    0.203064
