        92
S0: Total Energy = -6967.21458424
 C        -17.428551   -0.654261    0.948158
 C        -17.401159    0.668763    1.304861
 C        -16.102511    1.236708    1.120770
 C        -15.158061    0.357305    0.633905
 S        -15.892666   -1.226769    0.386228
 H        -15.867688    2.269277    1.342681
 C        -13.748046    0.581323    0.336393
 C        -13.135072    1.886098    0.379149
 N        -13.747733    3.028534    0.699995
 S        -12.619489    4.218647    0.619614
 N        -11.316725    3.327821    0.173334
 C        -11.723027    2.059109    0.065978
 C        -10.866042    0.953099   -0.304913
 C        -11.521897   -0.270795   -0.323477
 C        -12.895338   -0.449821   -0.012918
 C         -9.457078    1.201999   -0.610017
 C         -8.932683    2.307868   -1.248516
 C         -7.517499    2.330957   -1.357320
 C         -6.933637    1.219927   -0.760979
 S         -8.150716    0.153138   -0.087208
 H         -9.558966    3.093747   -1.651234
 C         -5.531132    0.873437   -0.664585
 C         -4.432586    1.709227   -0.583998
 C         -3.198338    1.023941   -0.485265
 C         -3.320971   -0.352324   -0.482683
 S         -5.010207   -0.808306   -0.636652
 H         -4.515631    2.788452   -0.551886
 H         -2.243677    1.530435   -0.389391
 C         -2.289473   -1.357027   -0.384148
 C         -2.413730   -2.712081   -0.142789
 C         -1.179708   -3.402429   -0.099573
 C         -0.077953   -2.593051   -0.311574
 S         -0.597826   -0.933765   -0.592327
 H         -3.370429   -3.194382    0.027872
 H         -1.100294   -4.458314    0.126135
 C        -18.584445    1.439334    1.827283
 H        -18.387082    1.838411    2.829650
 H        -18.818659    2.293433    1.180291
 H        -19.475476    0.807411    1.886207
 C         -6.777352    3.429783   -2.072491
 H         -6.443330    4.213220   -1.379448
 H         -5.889498    3.048378   -2.586957
 H         -7.424542    3.908520   -2.814024
 C          1.324103   -2.947108   -0.325334
 C          1.917633   -4.158772   -0.660265
 C          3.333226   -4.108865   -0.558282
 C          3.850377   -2.890974   -0.161291
 S          2.536017   -1.759316    0.126892
 H          3.967841   -4.953709   -0.790505
 C          5.235373   -2.487419    0.021682
 C          6.336906   -3.417273   -0.035699
 N          6.243152   -4.727246   -0.274926
 S          7.770833   -5.330347   -0.255739
 N          8.601972   -3.951681    0.059023
 C          7.706841   -2.965030    0.166005
 C          8.039601   -1.582259    0.436056
 C          6.931430   -0.744430    0.470927
 C          5.594878   -1.173567    0.269586
 C          9.437391   -1.202421    0.636353
 C         10.414995   -1.950050    1.262054
 C         11.712208   -1.373552    1.262239
 C         11.738993   -0.156433    0.592720
 S         10.149088    0.264908   -0.013414
 H         10.202219   -2.901133    1.733528
 C         12.858627    0.736793    0.376634
 C         14.197774    0.431066    0.226889
 C         15.022608    1.562506    0.010639
 C         14.335446    2.759018   -0.014211
 S         12.625517    2.479066    0.267962
 H         14.572979   -0.584885    0.226753
 H         16.093110    1.495096   -0.152475
 C         14.841577    4.099486   -0.221589
 C         14.149602    5.250647   -0.536435
 C         14.982526    6.397910   -0.668575
 C         16.305749    6.123431   -0.455896
 S         16.559144    4.448222   -0.076249
 H         13.075217    5.269424   -0.686396
 H         14.610266    7.385270   -0.918918
 C          1.184739   -5.391914   -1.117219
 H          1.847276   -6.034472   -1.705059
 H          0.821974   -5.987751   -0.269315
 H          0.316074   -5.138778   -1.733750
 C         12.886627   -2.019518    1.947993
 H         13.475629   -2.634133    1.254442
 H         13.562311   -1.272572    2.376876
 H         12.545980   -2.677397    2.753719
 H        -18.271306   -1.332852    0.980030
 H         17.149875    6.798554   -0.497389
Cl        -10.687588   -1.748955   -0.788512
Cl          7.094290    0.972719    0.820674
 H        -13.273805   -1.464429   -0.064870
 H          4.828286   -0.408629    0.321591
        92
T1: Total Energy = -6967.17433706
 C        -17.367118   -0.536011    0.609133
 C        -17.315452    0.741533    1.103142
 C        -15.998555    1.288915    1.009798
 C        -15.064422    0.438093    0.456561
 S        -15.832428   -1.089686    0.025910
 H        -15.743471    2.285906    1.343881
 C        -13.641446    0.650618    0.220526
 C        -13.006049    1.936592    0.368227
 N        -13.608236    3.067450    0.744685
 S        -12.457123    4.237624    0.777468
 N        -11.157010    3.351772    0.313134
 C        -11.582048    2.101228    0.109781
 C        -10.734011    1.004114   -0.307451
 C        -11.411934   -0.203193   -0.424135
 C        -12.797166   -0.373667   -0.167869
 C         -9.313268    1.243946   -0.555493
 C         -8.748270    2.389436   -1.082961
 C         -7.332631    2.390227   -1.155473
 C         -6.785785    1.216229   -0.644771
 S         -8.043168    0.122729   -0.097818
 H         -9.346987    3.221543   -1.430195
 C         -5.397883    0.829630   -0.548995
 C         -4.274091    1.635204   -0.437541
 C         -3.063564    0.918726   -0.349867
 C         -3.219874   -0.459718   -0.385938
 S         -4.923619   -0.866320   -0.557159
 H         -4.327797    2.714735   -0.380037
 H         -2.096198    1.398266   -0.243785
 C         -2.218949   -1.480423   -0.311140
 C         -2.378404   -2.862726   -0.282600
 C         -1.178060   -3.579870   -0.204983
 C         -0.030990   -2.775032   -0.170658
 S         -0.509797   -1.072631   -0.242937
 H         -3.351843   -3.340695   -0.312303
 H         -1.146275   -4.659049   -0.171345
 C        -18.492309    1.485978    1.675555
 H        -18.310718    1.774221    2.718085
 H        -18.688972    2.408128    1.115308
 H        -19.399715    0.875565    1.648409
 C         -6.554877    3.530535   -1.756261
 H         -6.172646    4.213246   -0.985984
 H         -5.695113    3.173448   -2.332696
 H         -7.192717    4.119048   -2.422649
 C          1.340443   -3.140395   -0.092492
 C          1.933234   -4.426262   -0.035284
 C          3.325168   -4.375858    0.033796
 C          3.888807   -3.085418    0.034681
 S          2.586121   -1.890510   -0.056315
 H          3.949943   -5.256871    0.084190
 C          5.246482   -2.692419    0.094546
 C          6.345606   -3.625630    0.165276
 N          6.222032   -4.949347    0.181202
 S          7.756857   -5.587549    0.265114
 N          8.605308   -4.157727    0.279301
 C          7.730094   -3.156369    0.222687
 C          8.083391   -1.735045    0.204800
 C          6.923854   -0.878709    0.142371
 C          5.622555   -1.317865    0.091516
 C          9.448667   -1.319604    0.240091
 C         10.583868   -2.145514    0.393248
 C         11.824987   -1.508253    0.369548
 C         11.709441   -0.115893    0.188981
 S         10.020433    0.354232    0.055294
 H         10.482458   -3.211151    0.527361
 C         12.732062    0.879012    0.128038
 C         14.115461    0.731851    0.013837
 C         14.818714    1.948099   -0.035379
 C         14.012005    3.073933    0.037674
 S         12.328012    2.599727    0.183885
 H         14.604750   -0.228986   -0.059608
 H         15.897584    2.003899   -0.134625
 C         14.390481    4.463725    0.013529
 C         13.581276    5.585178   -0.000890
 C         14.304289    6.808193   -0.025515
 C         15.661553    6.625317   -0.029935
 S         16.084572    4.943304   -0.000401
 H         12.497752    5.530659   -0.000577
 H         13.833818    7.784977   -0.041785
 C          1.184622   -5.731123   -0.045823
 H          1.885955   -6.568289    0.001523
 H          0.504301   -5.816031    0.810202
 H          0.585221   -5.847899   -0.956737
 C         13.112544   -2.265998    0.549432
 H         13.710003   -2.276974   -0.370926
 H         13.733683   -1.827536    1.339062
 H         12.905619   -3.304964    0.819735
 H        -18.227822   -1.189682    0.549115
 H         16.441855    7.374228   -0.048362
Cl        -10.591790   -1.666679   -0.955377
Cl          7.082810    0.880642    0.152276
 H        -13.192434   -1.375255   -0.294015
 H          4.845349   -0.563507    0.052644
        92
S1: Total Energy = -6967.15670261
 C        -17.351320   -0.815136    0.117564
 C        -17.424983    0.500838    0.496613
 C        -16.137548    1.118002    0.512678
 C        -15.097303    0.283992    0.149894
 S        -15.729986   -1.322280   -0.223731
 H        -15.975059    2.152290    0.784826
 C        -13.674742    0.565607    0.049889
 C        -13.104576    1.853240    0.350078
 N        -13.783196    2.924579    0.769384
 S        -12.689348    4.133301    0.995757
 N        -11.318064    3.330473    0.566655
 C        -11.669832    2.088488    0.224759
 C        -10.742632    1.054263   -0.202861
 C        -11.372175   -0.170469   -0.463168
 C        -12.757490   -0.399979   -0.345867
 C         -9.325100    1.351171   -0.314680
 C         -8.747157    2.604712   -0.505456
 C         -7.342099    2.637947   -0.514709
 C         -6.782846    1.365445   -0.307959
 S         -8.046142    0.156202   -0.129259
 H         -9.345541    3.493565   -0.644037
 C         -5.411132    0.974506   -0.266214
 C         -4.263707    1.771612   -0.152059
 C         -3.068431    1.051252   -0.122734
 C         -3.232612   -0.335500   -0.209676
 S         -4.946054   -0.726577   -0.344197
 H         -4.301387    2.848113   -0.064441
 H         -2.094393    1.519568   -0.030323
 C         -2.241720   -1.347917   -0.206414
 C         -2.405900   -2.736654   -0.272739
 C         -1.213472   -3.457589   -0.248595
 C         -0.059598   -2.658636   -0.162241
 S         -0.526829   -0.954458   -0.113668
 H         -3.381887   -3.206202   -0.334182
 H         -1.182857   -4.536474   -0.287851
 C        -18.700341    1.216662    0.854384
 H        -18.665387    1.600022    1.881408
 H        -18.871279    2.076224    0.194913
 H        -19.565523    0.552203    0.772305
 C         -6.575887    3.909169   -0.759911
 H         -6.066321    4.259212    0.147033
 H         -5.813673    3.780905   -1.536893
 H         -7.254391    4.704311   -1.080621
 C          1.308649   -3.039042   -0.114053
 C          1.891865   -4.323099   -0.168333
 C          3.292525   -4.281429   -0.094951
 C          3.850562   -3.006491    0.017291
 S          2.562113   -1.805394    0.030202
 H          3.913975   -5.165802   -0.123004
 C          5.229475   -2.615991    0.114909
 C          6.315430   -3.559986    0.093819
 N          6.185710   -4.883879   -0.028938
 S          7.718060   -5.522190   -0.011610
 N          8.578569   -4.115036    0.149698
 C          7.698827   -3.108402    0.199810
 C          8.054292   -1.703473    0.318894
 C          6.929435   -0.843918    0.333792
 C          5.605372   -1.269376    0.240320
 C          9.444834   -1.309925    0.398132
 C         10.531421   -2.122375    0.727584
 C         11.797498   -1.511821    0.671735
 C         11.721183   -0.173158    0.268925
 S         10.055486    0.298036   -0.014306
 H         10.399203   -3.154684    1.015538
 C         12.777363    0.786024    0.109790
 C         14.140665    0.576695   -0.070814
 C         14.887569    1.762713   -0.214990
 C         14.128857    2.920195   -0.153401
 S         12.440050    2.519266    0.112266
 H         14.582704   -0.408209   -0.138680
 H         15.959717    1.771075   -0.381070
 C         14.555256    4.292314   -0.268104
 C         13.786319    5.438518   -0.352837
 C         14.552128    6.630957   -0.459451
 C         15.902140    6.400384   -0.456419
 S         16.265142    4.709610   -0.316247
 H         12.701549    5.421938   -0.349614
 H         14.116228    7.620644   -0.539362
 C          1.144357   -5.622226   -0.294374
 H          1.847021   -6.458586   -0.333666
 H          0.473571   -5.790471    0.557086
 H          0.535331   -5.654305   -1.205891
 C         13.057915   -2.242241    1.049855
 H         13.643006   -2.529855    0.166539
 H         13.705925   -1.628824    1.685658
 H         12.816981   -3.160289    1.593417
 H        -18.163959   -1.523399    0.018971
 H         16.708354    7.118105   -0.527157
Cl        -10.465869   -1.571533   -1.028180
Cl          7.104415    0.903181    0.529841
 H        -13.105351   -1.396126   -0.594395
 H          4.839161   -0.503414    0.278129
