        92
S0: Total Energy = -7886.36952204
 C        -17.593140    1.418130    0.789941
 C        -17.275192    0.263342    1.456877
 C        -15.896758   -0.074243    1.283614
 C        -15.182786    0.822318    0.523679
 S        -16.235355    2.116114   -0.027139
 H        -15.445110   -0.961474    1.712669
 C        -13.780638    0.690817    0.102194
 C        -13.337790   -0.558809   -0.457139
 N        -14.111109   -1.636371   -0.628591
 S        -13.155242   -2.802616   -1.274801
 N        -11.736027   -1.983920   -1.364918
 C        -11.970375   -0.755656   -0.891212
 C        -10.989086    0.296147   -0.798815
 C        -11.451789    1.488110   -0.258625
 C        -12.808437    1.674501    0.195288
 C         -9.625491    0.032788   -1.273719
 C         -9.279852   -0.648808   -2.420492
 C         -7.886841   -0.864779   -2.599130
 C         -7.144784   -0.350864   -1.543380
 S         -8.181577    0.426477   -0.361445
 H        -10.019113   -1.006706   -3.126794
 C         -5.709212   -0.376278   -1.346708
 C         -4.701793   -0.362472   -2.292487
 C         -3.398367   -0.382702   -1.740278
 C         -3.376327   -0.408911   -0.359402
 S         -5.015648   -0.438225    0.270020
 H         -4.893886   -0.294046   -3.356019
 H         -2.497162   -0.350280   -2.343465
 C         -2.240150   -0.423088    0.531929
 C         -2.202055   -0.223013    1.898126
 C         -0.901054   -0.295580    2.452077
 C          0.087762   -0.556596    1.522689
 S         -0.623402   -0.738078   -0.077254
 H         -3.086439   -0.000904    2.486025
 H         -0.692109   -0.116071    3.499396
 C        -18.244866   -0.554264    2.268104
 H        -18.316085   -1.580075    1.886516
 H        -17.930047   -0.620787    3.316775
 H        -19.247383   -0.116887    2.245916
 C         -7.326046   -1.598261   -3.788322
 H         -7.012115   -0.908137   -4.582521
 H         -6.452985   -2.199250   -3.514457
 H         -8.080285   -2.265133   -4.217504
 C          1.517274   -0.687084    1.721803
 C          2.202035   -1.151873    2.837349
 C          3.608863   -1.140584    2.636852
 C          4.022951   -0.661286    1.412969
 S          2.628700   -0.206614    0.452950
 H          4.305924   -1.496905    3.385659
 C          5.400705   -0.639899    0.907957
 C          6.238016   -1.791908    1.126359
 N          5.855680   -2.906933    1.757295
 S          7.152451   -3.911779    1.768311
 N          8.237140   -2.975075    0.970014
 C          7.609205   -1.835811    0.661255
 C          8.201065   -0.735789   -0.058180
 C          7.363110    0.353020   -0.259092
 C          6.005760    0.405540    0.224038
 C          9.592084   -0.853173   -0.509412
 C         10.181765   -1.974515   -1.052516
 C         11.576099   -1.864468   -1.302291
 C         12.074156   -0.626175   -0.917657
 S         10.798860    0.399306   -0.287289
 H          9.624124   -2.879826   -1.259301
 C         13.433990   -0.130089   -0.994667
 C         14.424018   -0.441782   -1.906096
 C         15.641204    0.250355   -1.688158
 C         15.610619    1.108420   -0.607956
 S         14.042463    1.034307    0.177293
 H         14.266716   -1.115802   -2.738988
 H         16.509576    0.141692   -2.329404
 C         16.652288    1.976064   -0.099436
 C         16.548784    3.036522    0.776748
 C         17.793572    3.669604    1.054287
 C         18.843294    3.094699    0.391653
 S         18.328504    1.752315   -0.581509
 H         15.603198    3.363956    1.196034
 H         17.899863    4.522988    1.714989
 C          1.568133   -1.649190    4.109110
 H          2.236464   -2.347328    4.622661
 H          1.356059   -0.828581    4.807102
 H          0.621612   -2.162709    3.911986
 C         12.386868   -2.991844   -1.883939
 H         12.495069   -2.897605   -2.972544
 H         13.394702   -3.023062   -1.457542
 H         11.901837   -3.953190   -1.688090
 H        -18.556241    1.910149    0.741074
 H         19.888218    3.373530    0.412700
Cl        -13.220200    3.209906    0.925347
Cl        -10.365736    2.854645   -0.147540
Cl          5.106016    1.881543   -0.044354
Cl          7.950803    1.724831   -1.171712
        92
T1: Total Energy = -7886.32760299
 C         16.953008   -1.144855    1.744457
 C         16.799271    0.001924    1.009047
 C         15.441735    0.176267    0.595916
 C         14.583522   -0.804980    1.033929
 S         15.466384   -2.005212    1.963988
 H         15.109498    1.010337   -0.011728
 C         13.159968   -0.938027    0.692632
 C         12.762617   -0.821290   -0.685354
 N         13.598215   -0.598208   -1.705441
 S         12.676720   -0.525903   -3.060652
 N         11.193954   -0.780308   -2.405179
 C         11.377147   -0.937045   -1.089997
 C         10.329414   -1.191133   -0.133088
 C         10.749241   -1.304015    1.185338
 C         12.127097   -1.164670    1.589057
 C          8.948614   -1.309709   -0.615471
 C          8.537493   -1.967381   -1.755433
 C          7.157094   -1.841642   -2.062052
 C          6.492760   -1.042050   -1.137685
 S          7.585377   -0.489979    0.119075
 H          9.222564   -2.527598   -2.379926
 C          5.098600   -0.658614   -1.106350
 C          3.997781   -1.327142   -1.617870
 C          2.772715   -0.662916   -1.397141
 C          2.897338    0.532454   -0.706591
 S          4.590253    0.845388   -0.347078
 H          4.067585   -2.292562   -2.102168
 H          1.815459   -1.061761   -1.715769
 C          1.872952    1.452259   -0.304461
 C          1.981456    2.586286    0.492067
 C          0.770843    3.265137    0.692791
 C         -0.325812    2.678248    0.052476
 S          0.209173    1.239809   -0.826826
 H          2.920131    2.907297    0.931047
 H          0.692950    4.149178    1.309112
 C         17.909729    0.960723    0.670631
 H         18.023940    1.069103   -0.414812
 H         17.710131    1.960310    1.075852
 H         18.866219    0.618947    1.076924
 C          6.536934   -2.484478   -3.273732
 H          6.039889   -3.431198   -3.024216
 H          5.787630   -1.833652   -3.736131
 H          7.303520   -2.707714   -4.021841
 C         -1.694728    3.072130    0.044524
 C         -2.291006    4.258104    0.528083
 C         -3.667951    4.284538    0.318272
 C         -4.225136    3.156507   -0.327294
 S         -2.905715    2.023394   -0.683884
 H         -4.288094    5.114906    0.620255
 C         -5.603086    2.895633   -0.558680
 C         -6.635746    3.752062    0.007536
 N         -6.432489    4.961703    0.517246
 S         -7.891851    5.526140    1.080994
 N         -8.818262    4.202602    0.686900
 C         -8.023499    3.310593    0.105493
 C         -8.438643    1.995681   -0.359898
 C         -7.458697    1.364182   -1.216840
 C         -6.143124    1.782216   -1.310505
 C         -9.678191    1.428661    0.051434
 C        -10.704254    2.063634    0.784139
 C        -11.776838    1.257821    1.168966
 C        -11.624672   -0.077612    0.743891
 S        -10.125030   -0.277276   -0.151472
 H        -10.652043    3.116158    1.018246
 C        -12.504896   -1.189168    0.918001
 C        -13.607660   -1.328553    1.761276
 C        -14.232167   -2.585938    1.683547
 C        -13.638834   -3.459459    0.784713
 S        -12.270440   -2.684701    0.004990
 H        -13.936429   -0.553642    2.439251
 H        -15.094728   -2.856314    2.283306
 C        -14.010427   -4.812409    0.456397
 C        -13.362652   -5.717329   -0.364353
 C        -14.020616   -6.973390   -0.456977
 C        -15.167465   -7.030708    0.289408
 S        -15.469071   -5.539431    1.122059
 H        -12.436199   -5.487806   -0.880128
 H        -13.654261   -7.802079   -1.052575
 C         -1.563216    5.401983    1.180494
 H         -2.247256    6.237916    1.348937
 H         -1.144462    5.115371    2.153254
 H         -0.735332    5.762700    0.559026
 C        -12.956817    1.806661    1.924440
 H        -13.905225    1.532058    1.448724
 H        -12.987101    1.435772    2.956802
 H        -12.903522    2.897782    1.968816
 H         17.863418   -1.531815    2.184392
 H        -15.856306   -7.856985    0.402792
Cl         12.489285   -1.254356    3.297921
Cl          9.574159   -1.668338    2.428414
Cl         -5.108654    0.993728   -2.490745
Cl         -7.991958    0.073905   -2.283023
        92
S1: Total Energy = -7886.30984499
 C         17.566333    0.399581   -0.192988
 C         17.201268    0.135360   -1.488309
 C         15.796427   -0.101047   -1.594053
 C         15.107126    0.009144   -0.407195
 S         16.222229    0.392110    0.897629
 H         15.306202   -0.347444   -2.528604
 C         13.681832   -0.270928   -0.197503
 C         13.113405   -1.455976   -0.782207
 N         13.791477   -2.343427   -1.517939
 S         12.718288   -3.500721   -1.973236
 N         11.362434   -2.918369   -1.246879
 C         11.713479   -1.794511   -0.615024
 C         10.820490   -0.962469    0.157134
 C         11.408780    0.177729    0.707512
 C         12.791718    0.516569    0.525396
 C          9.423678   -1.368078    0.291774
 C          8.952331   -2.670934    0.366054
 C          7.549759   -2.809979    0.396679
 C          6.899719   -1.569577    0.319565
 S          8.066519   -0.259144    0.233909
 H          9.618869   -3.521766    0.410199
 C          5.498615   -1.278783    0.335208
 C          4.416073   -2.135405    0.105129
 C          3.168940   -1.508640    0.174629
 C          3.232275   -0.141051    0.457720
 S          4.911793    0.351578    0.657645
 H          4.534451   -3.181541   -0.140121
 H          2.232074   -2.029426    0.009099
 C          2.169196    0.788868    0.589303
 C          2.236899    2.166420    0.825756
 C          0.995245    2.796841    0.895073
 C         -0.097465    1.931783    0.718039
 S          0.486683    0.284455    0.464786
 H          3.177687    2.695804    0.932249
 H          0.885649    3.861226    1.044147
 C         18.150301    0.094954   -2.656511
 H         18.132210   -0.884720   -3.149341
 H         17.882212    0.842257   -3.413397
 H         19.178372    0.292881   -2.339207
 C          6.880390   -4.150072    0.533970
 H          6.094689   -4.135693    1.297357
 H          6.419136   -4.472302   -0.408561
 H          7.611976   -4.912371    0.815490
 C         -1.490141    2.225489    0.708242
 C         -2.158309    3.404095    1.091495
 C         -3.550087    3.290957    0.952196
 C         -4.020689    2.060310    0.489843
 S         -2.645710    0.996366    0.207530
 H         -4.223607    4.101891    1.186876
 C         -5.399338    1.729276    0.168606
 C         -6.297870    2.782097   -0.236472
 N         -5.962915    4.075605   -0.323035
 S         -7.310076    4.890492   -0.856333
 N         -8.351153    3.602943   -0.988214
 C         -7.674054    2.508426   -0.618971
 C         -8.228592    1.174087   -0.569626
 C         -7.316206    0.174250   -0.152097
 C         -5.974367    0.437416    0.196222
 C         -9.623179    0.968798   -0.922405
 C        -10.406927    1.797741   -1.724043
 C        -11.763846    1.442372   -1.841936
 C        -12.077550    0.302186   -1.092411
 S        -10.647464   -0.327521   -0.293662
 H         -9.994907    2.669412   -2.210316
 C        -13.341515   -0.360549   -0.931982
 C        -14.508644   -0.242272   -1.680488
 C        -15.560084   -1.068038   -1.236210
 C        -15.242063   -1.846831   -0.135473
 S        -13.592283   -1.524954    0.371362
 H        -14.592080    0.394858   -2.550034
 H        -16.528001   -1.108280   -1.724693
 C        -16.061279   -2.799596    0.570217
 C        -15.702588   -3.680975    1.573811
 C        -16.780573   -4.480128    2.041265
 C        -17.960638   -4.213018    1.399282
 S        -17.775991   -2.966792    0.206549
 H        -14.690199   -3.758306    1.956082
 H        -16.681663   -5.226876    2.821295
 C         -1.511591    4.653210    1.624299
 H         -2.273657    5.346118    1.990507
 H         -0.826548    4.435970    2.451863
 H         -0.937777    5.176279    0.848711
 C        -12.731134    2.245502   -2.669149
 H        -13.020674    1.717591   -3.587121
 H        -13.650671    2.467166   -2.115509
 H        -12.278313    3.195461   -2.966613
 H         18.558259    0.614079    0.184213
 H        -18.928998   -4.670155    1.552226
Cl         13.362909    2.017581    1.222401
Cl         10.445396    1.242317    1.707725
Cl         -4.998992   -0.917247    0.742341
Cl         -7.844647   -1.500351   -0.102434
