       120
S0: Total Energy = -6365.90778522
 C         -6.577000    1.784224   -0.215009
 C         -7.362070    2.999682   -0.262574
 N         -6.859988    4.234892   -0.334578
 S         -8.124996    5.281945   -0.365082
 N         -9.361300    4.205874   -0.287690
 C         -8.824836    2.985359   -0.235395
 C         -9.567791    1.747316   -0.158596
 C         -8.777471    0.609771   -0.113541
 C         -7.371412    0.649809   -0.141238
 F         -6.773974   -0.564670   -0.089146
 C        -11.018912    1.690337   -0.128245
 C        -11.942715    2.720291   -0.183668
 C        -13.281645    2.281536   -0.137721
 C        -13.436588    0.906774   -0.043508
 S        -11.852636    0.144177   -0.027821
 H        -11.654187    3.759213   -0.261021
 H        -14.116242    2.970801   -0.187087
 C        -14.698645    0.173552    0.056606
 C        -15.898797    0.884356    0.257783
 C        -14.800649   -1.236015   -0.035168
 C        -17.137028    0.256831    0.339914
 H        -15.850065    1.958786    0.365220
 C        -16.040519   -1.864033    0.051918
 C        -17.240302   -1.151272    0.223936
 H        -16.086949   -2.943424    0.006944
 O        -13.629721   -1.917241   -0.197654
 O        -18.306965    0.932256    0.539624
 C        -18.511225   -1.881549    0.268583
 C        -18.727685   -3.184475   -0.141738
 S        -20.005192   -1.223250    0.930648
 C        -20.050205   -3.653981    0.081482
 H        -17.961612   -3.790291   -0.612196
 C        -20.851798   -2.709637    0.664206
 H        -20.388950   -4.648065   -0.189872
 C        -18.279516    2.346749    0.686046
 H        -17.683081    2.647155    1.556269
 H        -17.884508    2.833045   -0.214397
 H        -19.317101    2.648278    0.835283
 C        -13.651188   -3.336793   -0.295032
 H        -14.051216   -3.793123    0.618428
 H        -14.240286   -3.666826   -1.159162
 H        -12.611535   -3.638946   -0.426994
 H        -21.897852   -2.789490    0.929966
 C         -5.122350    1.768240   -0.237953
 S         -4.188510    0.272460   -0.197616
 C         -4.260334    2.852805   -0.311869
 C         -2.659552    1.132521   -0.256933
 C         -2.898308    2.496696   -0.322840
 H         -4.611701    3.873082   -0.363164
 C         -1.349922    0.482139   -0.204862
 H         -2.109967    3.236959   -0.394412
 C         -1.154304   -0.912544   -0.370563
 C         -0.196446    1.261355    0.007409
 C          0.124255   -1.458041   -0.338572
 O         -2.279331   -1.658181   -0.568122
 C          1.082814    0.715833    0.039633
 H         -0.315035    2.323505    0.169527
 C          1.278908   -0.677570   -0.130846
 H          0.240534   -2.521307   -0.494271
 C         -2.168316   -3.068035   -0.722687
 O          2.206727    1.462046    0.242552
 C          2.589017   -1.325524   -0.090527
 H         -1.580222   -3.325886   -1.611855
 H         -1.717529   -3.531777    0.163136
 H         -3.189110   -3.432214   -0.844675
 C          2.094113    2.871309    0.405077
 C          2.840936   -2.689420   -0.094341
 S          4.116391   -0.454250   -0.067705
 H          1.644541    3.339263   -0.478979
 H          1.504265    3.123087    1.294611
 H          3.114293    3.235904    0.531072
 C          4.207436   -3.034880   -0.091561
 H          2.057673   -3.438053   -0.087765
 C          5.056507   -1.940994   -0.082613
 H          4.568876   -4.053644   -0.090712
 C          6.508506   -1.897942   -0.069005
 C          7.336834   -3.082288   -0.103825
 C          7.216844   -0.707630   -0.024124
 C          8.797392   -2.994871   -0.092984
 N          6.887820   -4.338004   -0.148621
 C          8.622464   -0.649755   -0.013789
 C          9.495347   -1.727057   -0.047226
 N          9.385603   -4.193077   -0.129514
 S          8.197632   -5.326258   -0.174147
 F          9.132482    0.604333    0.033773
 C         10.945327   -1.610603   -0.034388
 S         11.773217   -0.053354    0.020503
 C         11.881895   -2.632686   -0.080142
 C         13.359133   -0.805718    0.003094
 C         13.216230   -2.183170   -0.060441
 H         11.603592   -3.675238   -0.132658
 C         14.619444   -0.064178    0.081077
 H         14.054610   -2.868335   -0.106656
 C         14.717608    1.341228   -0.064196
 C         15.823609   -0.763299    0.297021
 C         15.955743    1.975679   -0.005560
 O         13.546733    2.009921   -0.274874
 C         17.059955   -0.128753    0.357831
 H         15.779006   -1.833972    0.439106
 C         17.155900    1.276773    0.215497
 H         16.005678    3.045259   -0.157005
 C         13.562214    3.425877   -0.408526
 O         18.234627   -0.795739    0.563250
 C         18.416404    2.021320    0.304325
 H         13.967477    3.906922    0.490096
 H         14.143673    3.737256   -1.284904
 H         12.520518    3.720788   -0.541052
 C         18.219048   -2.212418    0.685182
 C         18.558359    3.383534    0.495563
 S         20.007901    1.291754    0.107709
 H         17.638305   -2.531519    1.559433
 H         17.813152   -2.687063   -0.216714
 H         19.260681   -2.509272    0.814880
 C         19.904415    3.839172    0.468790
 H         17.718104    4.045630    0.671263
 C         20.798865    2.824926    0.257305
 H         20.190827    4.875715    0.611057
 H         21.878412    2.882135    0.207068
 H         -9.219661   -0.378934   -0.054293
 H          6.705636    0.248562    0.006823
       120
T1: Total Energy = -6365.86762831
 C          6.567545   -1.802078   -0.178043
 C          7.358296   -3.015042   -0.210137
 N          6.862001   -4.253609   -0.251348
 S          8.132259   -5.295345   -0.273927
 N          9.363548   -4.211111   -0.231997
 C          8.821147   -2.992611   -0.199267
 C          9.558442   -1.749520   -0.155326
 C          8.762462   -0.613926   -0.126188
 C          7.357970   -0.661105   -0.137776
 F          6.753606    0.550455   -0.105747
 C         11.008335   -1.684752   -0.138685
 C         11.937445   -2.710355   -0.200054
 C         13.273907   -2.264624   -0.167803
 C         13.422681   -0.888448   -0.077925
 S         11.835128   -0.133903   -0.049034
 H         11.653547   -3.750937   -0.271918
 H         14.111583   -2.949645   -0.223417
 C         14.681534   -0.148879    0.009816
 C         15.887529   -0.853362    0.198940
 C         14.775079    1.261406   -0.081885
 C         17.122912   -0.219171    0.270145
 H         15.845773   -1.928124    0.305766
 C         16.012245    1.896080   -0.005741
 C         17.217395    1.189716    0.154677
 H         16.052364    2.975751   -0.049973
 O         13.599110    1.936288   -0.232872
 O         18.298378   -0.888192    0.458119
 C         18.484563    1.926843    0.188809
 C         18.690197    3.231334   -0.222234
 S         19.987793    1.276347    0.837499
 C         20.011897    3.708019   -0.009949
 H         17.916762    3.833226   -0.685630
 C         20.823688    2.767664    0.565130
 H         20.342767    4.704192   -0.283326
 C         18.280114   -2.302815    0.604982
 H         17.693454   -2.606315    1.480759
 H         17.879491   -2.791450   -0.291700
 H         19.320693   -2.598551    0.744598
 C         13.611899    3.355997   -0.330719
 H         14.017667    3.814647    0.579016
 H         14.191337    3.688954   -1.200228
 H         12.569450    3.652376   -0.453284
 H         21.871499    2.853206    0.822053
 C          5.115195   -1.792559   -0.185714
 S          4.173698   -0.301949   -0.149518
 C          4.257220   -2.885411   -0.222641
 C          2.645956   -1.171907   -0.179809
 C          2.896420   -2.539268   -0.219270
 H          4.614606   -3.904426   -0.251981
 C          1.337564   -0.532406   -0.159087
 H          2.115653   -3.289913   -0.248570
 C          1.144316    0.877912   -0.155278
 C          0.170096   -1.325251   -0.141779
 C         -0.130366    1.422470   -0.139530
 O          2.277775    1.633680   -0.168262
 C         -1.106844   -0.782762   -0.125470
 H          0.275840   -2.400535   -0.137419
 C         -1.302215    0.629003   -0.124995
 H         -0.234283    2.497816   -0.137556
 C          2.177841    3.053437   -0.162461
 O         -2.237616   -1.540416   -0.107427
 C         -2.601917    1.261185   -0.109838
 H          1.649172    3.417530   -1.051555
 H          1.669908    3.411794    0.740925
 H          3.204632    3.420613   -0.173239
 C         -2.135967   -2.960635   -0.107145
 C         -2.857972    2.641614   -0.114512
 S         -4.135492    0.390625   -0.081663
 H         -1.629192   -3.321528   -1.009953
 H         -1.605479   -3.319565    0.782748
 H         -3.162289   -3.328877   -0.093128
 C         -4.203043    2.993436   -0.096215
 H         -2.070484    3.385476   -0.131684
 C         -5.078454    1.890312   -0.075736
 H         -4.568669    4.010321   -0.096954
 C         -6.495366    1.865758   -0.052440
 C         -7.312536    3.059526   -0.048002
 C         -7.215577    0.627338   -0.030862
 C         -8.773329    2.977515   -0.021810
 N         -6.848045    4.307615   -0.066531
 C         -8.578758    0.576667   -0.006281
 C         -9.467168    1.700535    0.001449
 N         -9.369418    4.166999   -0.021425
 S         -8.169413    5.329377   -0.052119
 F         -9.139451   -0.659531    0.012843
 C        -10.883771    1.580442    0.029231
 S        -11.736774    0.024084    0.060842
 C        -11.831024    2.625190    0.039562
 C        -13.316554    0.800605    0.082692
 C        -13.151623    2.192478    0.068534
 H        -11.531678    3.662675    0.027231
 C        -14.578833    0.088720    0.109191
 H        -13.981695    2.888395    0.083589
 C        -14.686123   -1.329468    0.160565
 C        -15.795518    0.809679    0.078494
 C        -15.930942   -1.948185    0.188248
 O        -13.513495   -2.018297    0.170701
 C        -17.035837    0.189609    0.107577
 H        -15.755918    1.888097    0.027962
 C        -17.139070   -1.226113    0.175733
 H        -15.976895   -3.028080    0.201364
 C        -13.528655   -3.441399    0.223393
 O        -18.215547    0.873161    0.073599
 C        -18.410493   -1.946052    0.239105
 H        -14.021838   -3.798400    1.135212
 H        -14.027022   -3.865109   -0.656464
 H        -12.481637   -3.745672    0.231360
 C        -18.199408    2.293424   -0.014955
 C        -18.585836   -3.287162    0.539666
 S        -19.978459   -1.220352   -0.113444
 H        -17.706196    2.740232    0.856753
 H        -17.700774    2.629501   -0.932147
 H        -19.246011    2.599353   -0.036415
 C        -19.933184   -3.727680    0.476581
 H        -17.769573   -3.943495    0.818163
 C        -20.798195   -2.724456    0.127376
 H        -20.243586   -4.744826    0.689668
 H        -21.873519   -2.776031    0.016398
 H          9.200892    0.377669   -0.093806
 H         -6.686914   -0.318919   -0.033049
       120
S1: Total Energy = -6365.85108100
 C          6.565738   -1.768521    0.008295
 C          7.342571   -2.992567    0.013939
 N          6.830297   -4.224964    0.024585
 S          8.101362   -5.288396    0.027823
 N          9.347113   -4.200307    0.015582
 C          8.805028   -2.978016    0.008629
 C          9.543634   -1.738379   -0.003743
 C          8.754845   -0.577603   -0.008588
 C          7.367114   -0.615535   -0.002699
 F          6.751112    0.593967   -0.008144
 C         10.982970   -1.680109   -0.010313
 C         11.912437   -2.717468   -0.002301
 C         13.245171   -2.280679   -0.014166
 C         13.409018   -0.897102   -0.031815
 S         11.824184   -0.130109   -0.039152
 H         11.616594   -3.756988    0.009219
 H         14.076608   -2.975492   -0.017008
 C         14.670398   -0.171557   -0.037026
 C         15.887460   -0.881488    0.057995
 C         14.769374    1.242644   -0.130089
 C         17.125889   -0.253372    0.046766
 H         15.851708   -1.957660    0.148282
 C         16.010652    1.869982   -0.139693
 C         17.222616    1.158108   -0.066443
 H         16.050446    2.949326   -0.186405
 O         13.591142    1.923800   -0.197638
 O         18.307680   -0.928788    0.143184
 C         18.491196    1.885849   -0.116022
 C         18.668883    3.213638   -0.468026
 S         20.049808    1.189074    0.325506
 C         20.010429    3.667857   -0.373976
 H         17.858936    3.849864   -0.805619
 C         20.868794    2.688553    0.050406
 H         20.321627    4.677391   -0.619997
 C         18.295259   -2.344594    0.282786
 H         17.769239   -2.650630    1.195270
 H         17.832224   -2.826176   -0.587058
 H         19.342086   -2.643674    0.348557
 C         13.602587    3.343492   -0.298457
 H         14.072222    3.800672    0.580706
 H         14.121932    3.672475   -1.206507
 H         12.555293    3.643498   -0.348752
 H         21.939032    2.753341    0.197658
 C          5.126768   -1.745924    0.013356
 S          4.186988   -0.250341    0.013025
 C          4.256536   -2.845140    0.019974
 C          2.652670   -1.120436    0.020959
 C          2.907390   -2.498817    0.023819
 H          4.619397   -3.862351    0.022132
 C          1.355650   -0.495563    0.023491
 H          2.124593   -3.247723    0.029649
 C          1.154246    0.922710    0.029028
 C          0.182899   -1.291603    0.021033
 C         -0.118436    1.463632    0.034048
 O          2.284367    1.675424    0.029020
 C         -1.089942   -0.750814    0.025112
 H          0.289189   -2.366496    0.014931
 C         -1.290802    0.666743    0.033001
 H         -0.224805    2.538588    0.038027
 C          2.188452    3.096976    0.035180
 O         -2.220435   -1.503872    0.022238
 C         -2.587134    1.291264    0.040007
 H          1.668872    3.460917   -0.858870
 H          1.672667    3.453376    0.934446
 H          3.216426    3.460068    0.034534
 C         -2.123430   -2.925715    0.014951
 C         -2.848625    2.669407    0.056661
 S         -4.120354    0.418065    0.028278
 H         -1.606327   -3.280739   -0.883960
 H         -1.604764   -3.289762    0.909340
 H         -3.151036   -3.289980    0.014026
 C         -4.200222    3.011916    0.059704
 H         -2.066174    3.418421    0.067424
 C         -5.061248    1.909102    0.044716
 H         -4.568588    4.027837    0.072396
 C         -6.496271    1.874794    0.041958
 C         -7.316692    3.064745    0.063677
 C         -7.208325    0.665097    0.017764
 C         -8.776227    2.980356    0.061123
 N         -6.858180    4.318536    0.088070
 C         -8.596045    0.613096    0.014934
 C         -9.470944    1.709781    0.035308
 N         -9.369304    4.177311    0.083850
 S         -8.173673    5.320824    0.106590
 F         -9.129830   -0.634111   -0.010437
 C        -10.908415    1.593393    0.032007
 S        -11.747862    0.038145   -0.014354
 C        -11.847920    2.626569    0.057480
 C        -13.331720    0.801019    0.007428
 C        -13.176045    2.186384    0.043990
 H        -11.558324    3.666821    0.083175
 C        -14.591861    0.074803   -0.002007
 H        -14.008599    2.879632    0.056624
 C        -14.687830   -1.341008   -0.091472
 C        -15.811933    0.783174    0.071181
 C        -15.927586   -1.971090   -0.105305
 O        -13.509535   -2.017305   -0.173837
 C        -17.048374    0.152315    0.059782
 H        -15.779736    1.860587    0.145663
 C        -17.140662   -1.262691   -0.020358
 H        -15.966137   -3.046796   -0.205597
 C        -13.514826   -3.438197   -0.262886
 O        -18.232699    0.825760    0.127181
 C        -18.405442   -1.996966   -0.008485
 H        -13.990026   -3.888838    0.616571
 H        -14.025608   -3.776593   -1.172247
 H        -12.465967   -3.733793   -0.302734
 C        -18.227011    2.247481    0.186942
 C        -18.567067   -3.361311    0.170617
 S        -19.982140   -1.256502   -0.282441
 H        -17.719033    2.605241    1.090718
 H        -17.749018    2.681596   -0.699576
 H        -19.275701    2.545460    0.217994
 C        -19.911182   -3.806519    0.076846
 H        -17.742759   -4.031918    0.383915
 C        -20.787490   -2.783942   -0.174543
 H        -20.211501   -4.841476    0.199626
 H        -21.863253   -2.834992   -0.281382
 H          9.209485    0.406847   -0.016488
 H         -6.691204   -0.287857   -0.000516
