       120
S0: Total Energy = -6564.35761840
 C         -6.573785   -1.758703    0.091248
 C         -7.387835   -2.957229    0.114711
 N         -6.910066   -4.201552    0.142266
 S         -8.193833   -5.224796    0.160221
 N         -9.408298   -4.120492    0.133545
 C         -8.850780   -2.909754    0.109739
 C         -9.585780   -1.661090    0.081217
 C         -8.751043   -0.559124    0.057699
 C         -7.335451   -0.605110    0.063094
 F         -9.266653    0.685465    0.027504
 F         -6.740038    0.603301    0.038139
 C        -11.037228   -1.581692    0.074236
 C        -11.946484   -2.628666    0.110231
 C        -13.291157   -2.212970    0.099220
 C        -13.468730   -0.838325    0.052407
 S        -11.903717   -0.045179    0.038840
 H        -11.641678   -3.664343    0.149559
 H        -14.112039   -2.919151    0.140179
 C        -14.747801   -0.128381   -0.005364
 C        -15.934488   -0.854239   -0.228817
 C        -14.879013    1.273062    0.151087
 C        -17.186784   -0.250487   -0.270198
 H        -15.863799   -1.920957   -0.388499
 C        -16.132678    1.877392    0.105836
 C        -17.319450    1.147781   -0.087074
 H        -16.200569    2.952110    0.203209
 O        -13.720913    1.970760    0.333190
 O        -18.343673   -0.941901   -0.491829
 C        -18.606332    1.851303   -0.084328
 C        -18.842339    3.137072    0.367673
 S        -20.101688    1.177302   -0.728334
 C        -20.180332    3.581592    0.190479
 H        -18.079151    3.748573    0.835379
 C        -20.975003    2.635289   -0.398370
 H        -20.534077    4.559964    0.497548
 C        -18.287599   -2.347868   -0.698238
 H        -17.694228   -2.598404   -1.586180
 H        -17.872582   -2.862911    0.176885
 H        -19.320035   -2.665474   -0.850039
 C        -13.769188    3.384394    0.486921
 H        -14.189834    3.868093   -0.402977
 H        -14.353783    3.668554    1.370310
 H        -12.734050    3.701828    0.618280
 H        -22.028869    2.698265   -0.636392
 C         -5.120062   -1.772573    0.096600
 S         -4.157408   -0.295221    0.074599
 C         -4.280150   -2.876548    0.121134
 C         -2.644935   -1.186785    0.097024
 C         -2.912169   -2.548215    0.121291
 H         -4.650697   -3.891138    0.139198
 C         -1.323536   -0.558560    0.088012
 H         -2.141562   -3.309572    0.140690
 C         -1.116856    0.844459    0.083554
 C         -0.168183   -1.364282    0.084044
 C          0.168931    1.374031    0.078533
 O         -2.240366    1.617338    0.084437
 C          1.117568   -0.834746    0.078771
 H         -0.286015   -2.438483    0.083575
 C          1.324308    0.568276    0.077108
 H          0.286774    2.448244    0.074944
 C         -2.120656    3.035194    0.078480
 O          2.240961   -1.607764    0.074256
 C          2.645906    1.196151    0.074443
 H         -1.595265    3.393527    0.971948
 H         -1.599959    3.386436   -0.820525
 H         -3.142337    3.416743    0.079668
 C          2.121159   -3.025619    0.075685
 C          2.913967    2.557621    0.083003
 S          4.157808    0.303524    0.058788
 H          1.601525   -3.379731    0.974181
 H          1.594673   -3.381029   -0.818303
 H          3.142815   -3.407218    0.072035
 C          4.282180    2.885113    0.077112
 H          2.143783    3.319567    0.094359
 C          5.121369    1.780390    0.063628
 H          4.653386    3.899620    0.083013
 C          6.575070    1.765141    0.055972
 C          7.390436    2.962958    0.065694
 C          7.335491    0.610520    0.038818
 C          8.853344    2.913862    0.059116
 N          6.914006    4.208002    0.080919
 C          8.751001    0.562970    0.031730
 F          6.738893   -0.597510    0.027420
 C          9.586962    1.664188    0.042671
 N          9.412193    4.124173    0.069481
 S          8.198908    5.229997    0.086322
 F          9.265131   -0.682460    0.013716
 C         11.038321    1.582891    0.034308
 S         11.902422    0.044836    0.016054
 C         11.949189    2.628807    0.057695
 C         13.468689    0.835608    0.017986
 C         13.293306    2.210936    0.049942
 H         11.645970    3.665326    0.085786
 C         14.745708    0.121928   -0.040657
 H         14.115222    2.916390    0.081591
 C         14.874121   -1.277610    0.133511
 C         15.934392    0.843941   -0.267004
 C         16.126408   -1.885239    0.092311
 O         13.717696   -1.967249    0.353108
 C         17.184603    0.236083   -0.310985
 H         15.866380    1.910186   -0.431187
 C         17.311134   -1.164069   -0.139186
 H         16.199569   -2.950062    0.265924
 C         13.762684   -3.380154    0.514550
 O         18.344757    0.924340   -0.526331
 C         18.588345   -1.881591   -0.208285
 H         14.182523   -3.869223   -0.372837
 H         14.346340   -3.661348    1.399494
 H         12.726850   -3.694421    0.648074
 C         18.298638    2.337754   -0.676761
 C         18.761193   -3.244229   -0.369208
 S         20.162391   -1.112252   -0.024000
 H         17.714343    2.626280   -1.559197
 H         17.879118    2.821106    0.214177
 H         19.333998    2.654652   -0.808963
 C         20.116908   -3.668748   -0.329308
 H         17.936542   -3.928781   -0.532319
 C         20.987654   -2.630032   -0.138057
 H         20.427036   -4.701394   -0.448003
 H         22.068048   -2.661899   -0.083650
       120
T1: Total Energy = -6564.31569377
 C         -6.571153    1.776570   -0.131968
 C         -7.392318    2.970351   -0.162026
 N         -6.922547    4.217323   -0.194652
 S         -8.213219    5.232592   -0.219030
 N         -9.420252    4.119958   -0.188881
 C         -8.854805    2.913172   -0.158888
 C         -9.581887    1.659677   -0.125211
 C         -8.739792    0.561824   -0.096761
 C         -7.326249    0.616771   -0.100573
 F         -9.248581   -0.685449   -0.061815
 F         -6.721769   -0.586714   -0.070065
 C        -11.031443    1.570739   -0.117487
 C        -11.948187    2.611706   -0.164379
 C        -13.289384    2.187620   -0.145282
 C        -13.458092    0.811907   -0.080836
 S        -11.888128    0.029036   -0.061107
 H        -11.650178    3.648811   -0.216060
 H        -14.114671    2.888206   -0.192008
 C        -14.731824    0.094310   -0.011510
 C        -15.925306    0.816296    0.189387
 C        -14.851223   -1.311874   -0.132212
 C        -17.172383    0.203471    0.245282
 H        -15.864272    1.887660    0.318700
 C        -16.099845   -1.925411   -0.071289
 C        -17.292387   -1.200696    0.101632
 H        -16.159187   -3.003037   -0.137840
 O        -13.687519   -2.004434   -0.295240
 O        -18.335996    0.890373    0.444151
 C        -18.572802   -1.915387    0.119677
 C        -18.801069   -3.208501   -0.314660
 S        -20.065789   -1.249282    0.776415
 C        -20.131807   -3.664768   -0.113864
 H        -18.037458   -3.816416   -0.786425
 C        -20.927998   -2.720160    0.475768
 H        -20.479861   -4.649868   -0.405478
 C        -18.291974    2.301280    0.617437
 H        -17.702399    2.577636    1.500240
 H        -17.879630    2.799051   -0.268877
 H        -19.327308    2.613741    0.759821
 C        -13.724094   -3.421737   -0.416727
 H        -14.140400   -3.888405    0.484179
 H        -14.306634   -3.730459   -1.293152
 H        -12.686389   -3.733390   -0.541300
 H        -21.977881   -2.791118    0.728655
 C         -5.119714    1.798097   -0.133308
 S         -4.148769    0.326898   -0.107016
 C         -4.285653    2.909931   -0.155751
 C         -2.640437    1.229008   -0.124261
 C         -2.918624    2.591967   -0.150436
 H         -4.664299    3.921436   -0.175922
 C         -1.320030    0.615925   -0.108599
 H         -2.153193    3.358456   -0.167128
 C         -1.100746   -0.791191   -0.102112
 C         -0.168404    1.431529   -0.099059
 C          0.183630   -1.311404   -0.088937
 O         -2.219945   -1.566672   -0.109872
 C          1.118557    0.913203   -0.085407
 H         -0.294423    2.504599   -0.100474
 C          1.340368   -0.495633   -0.080638
 H          0.307823   -2.384504   -0.084250
 C         -2.095544   -2.985026   -0.102853
 O          2.234084    1.690332   -0.074838
 C          2.651921   -1.102175   -0.067761
 H         -1.562950   -3.340321   -0.993049
 H         -1.579254   -3.332913    0.799756
 H         -3.115904   -3.369542   -0.110560
 C          2.109229    3.109157   -0.077914
 C          2.928194   -2.478608   -0.066428
 S          4.167081   -0.202875   -0.051009
 H          1.593887    3.458721   -0.980257
 H          1.575612    3.461090    0.812843
 H          3.129621    3.493235   -0.068027
 C          4.277087   -2.805696   -0.052479
 H          2.155429   -3.237762   -0.075974
 C          5.139301   -1.687807   -0.041932
 H          4.657364   -3.816347   -0.049624
 C          6.559464   -1.694396   -0.026038
 C          7.357501   -2.908041   -0.018316
 C          7.344317   -0.500406   -0.015580
 C          8.821290   -2.871008   -0.000686
 N          6.859284   -4.141514   -0.026158
 C          8.714372   -0.466757    0.001212
 F          6.716561    0.697308   -0.022161
 C          9.556954   -1.619856    0.010112
 N          9.380988   -4.078527    0.004237
 S          8.147561   -5.203323   -0.012296
 F          9.281766    0.760599    0.009548
 C         10.977242   -1.543137    0.028004
 S         11.874270   -0.012032    0.040743
 C         11.892482   -2.615133    0.038296
 C         13.431392   -0.834118    0.059537
 C         13.225529   -2.220270    0.055396
 H         11.563692   -3.643709    0.033392
 C         14.713438   -0.158462    0.079038
 H         14.035144   -2.939931    0.065836
 C         14.861119    1.257067    0.087878
 C         15.909107   -0.914454    0.084059
 C         16.122796    1.840812    0.107386
 O         13.708561    1.978739    0.065255
 C         17.166396   -0.329214    0.105063
 H         15.839170   -1.992482    0.072333
 C         17.309731    1.084523    0.128817
 H         16.199643    2.918868    0.086139
 C         13.763733    3.401851    0.076890
 O         18.326197   -1.046849    0.106032
 C         18.600575    1.769639    0.181751
 H         14.259816    3.771127    0.982192
 H         14.280912    3.785238   -0.810546
 H         12.725754    3.735622    0.066917
 C         18.269675   -2.468191    0.063600
 C         18.812011    3.112772    0.448150
 S         20.149110    0.991334   -0.143068
 H         17.756532   -2.871714    0.944852
 H         17.768980   -2.819751   -0.846629
 H         19.307119   -2.804575    0.061722
 C         20.171474    3.513664    0.380778
 H         18.012978    3.798312    0.705403
 C         21.009608    2.477890    0.062345
 H         20.509416    4.526902    0.569158
 H         22.086483    2.496426   -0.043934
       120
S1: Total Energy = -6564.29994599
 C         -6.563511    1.729033   -0.039748
 C         -7.369396    2.933838   -0.040534
 N         -6.882260    4.175716   -0.042543
 S         -8.172464    5.212882   -0.041780
 N         -9.394999    4.098502   -0.038810
 C         -8.831479    2.887645   -0.038416
 C         -9.561598    1.637415   -0.036530
 C         -8.725626    0.515319   -0.036807
 C         -7.330328    0.557430   -0.038249
 F         -9.262836   -0.724323   -0.035343
 F         -6.717671   -0.646301   -0.037672
 C        -11.001857    1.557948   -0.032632
 C        -11.914232    2.614191   -0.030769
 C        -13.253369    2.206071   -0.027296
 C        -13.442819    0.825181   -0.026387
 S        -11.878861    0.022993   -0.035936
 H        -11.599431    3.647398   -0.034278
 H        -14.068946    2.919286   -0.032516
 C        -14.720866    0.129260   -0.011782
 C        -15.921031    0.867300    0.084698
 C        -14.852234   -1.284058   -0.085738
 C        -17.172909    0.266974    0.093561
 H        -15.860902    1.943484    0.160120
 C        -16.107093   -1.883786   -0.075596
 C        -17.301995   -1.143987    0.000074
 H        -16.170810   -2.962494   -0.107747
 O        -13.690825   -1.990911   -0.155647
 O        -18.338315    0.969261    0.191972
 C        -18.586673   -1.843130   -0.027072
 C        -18.797084   -3.172064   -0.357180
 S        -20.125345   -1.104768    0.416828
 C        -20.147278   -3.594310   -0.245046
 H        -18.004546   -3.831350   -0.691662
 C        -20.979653   -2.589236    0.171516
 H        -20.483352   -4.600111   -0.472768
 C        -18.293621    2.386301    0.313323
 H        -17.752016    2.691891    1.216750
 H        -17.828739    2.846301   -0.567090
 H        -19.332975    2.708980    0.385247
 C        -13.732114   -3.411615   -0.237773
 H        -14.202496   -3.847153    0.651836
 H        -14.267012   -3.741027   -1.136538
 H        -12.691572   -3.732900   -0.293943
 H        -22.049674   -2.627901    0.329190
 C         -5.124772    1.735865   -0.039777
 S         -4.157301    0.258125   -0.032299
 C         -4.277070    2.851947   -0.044045
 C         -2.641285    1.157621   -0.034697
 C         -2.921592    2.531203   -0.041395
 H         -4.658937    3.862152   -0.048591
 C         -1.332832    0.556385   -0.029780
 H         -2.152802    3.294365   -0.043817
 C         -1.106903   -0.858082   -0.019309
 C         -0.175049    1.373423   -0.034469
 C          0.175334   -1.376532   -0.012813
 O         -2.223486   -1.629780   -0.016084
 C          1.107184    0.854977   -0.028421
 H         -0.300243    2.446264   -0.043235
 C          1.333122   -0.559476   -0.016705
 H          0.300546   -2.449377   -0.004322
 C         -2.104221   -3.049986   -0.005139
 O          2.223738    1.626704   -0.032831
 C          2.641605   -1.160597   -0.008669
 H         -1.578808   -3.407894   -0.898113
 H         -1.582617   -3.394373    0.895346
 H         -3.126140   -3.429638   -0.004436
 C          2.104452    3.046910   -0.043826
 C          2.922107   -2.534108    0.004681
 S          4.157470   -0.260893   -0.013967
 H          1.582268    3.391214   -0.944008
 H          1.579612    3.404887    0.849453
 H          3.126369    3.426567   -0.045216
 C          4.277633   -2.854611    0.010844
 H          2.153414   -3.297355    0.010102
 C          5.125162   -1.738410    0.002250
 H          4.659649   -3.864718    0.021485
 C          6.563873   -1.731199    0.006258
 C          7.370118   -2.935660    0.023186
 C          7.330384   -0.559462   -0.005503
 C          8.832187   -2.888993    0.027793
 N          6.883348   -4.177599    0.036369
 C          8.725665   -0.516905   -0.001435
 F          6.717450    0.644006   -0.021864
 C          9.561976   -1.638620    0.014932
 N          9.396026   -4.099575    0.044367
 S          8.173823   -5.214252    0.053411
 F          9.262456    0.722835   -0.014694
 C         11.002183   -1.558596    0.019896
 S         11.878561   -0.023504   -0.002629
 C         11.914966   -2.614334    0.038289
 C         13.443003   -0.824818    0.018472
 C         13.253908   -2.205685    0.037379
 H         11.600614   -3.647614    0.050671
 C         14.720553   -0.127835    0.024247
 H         14.069425   -2.918863    0.047480
 C         14.849393    1.286433   -0.035058
 C         15.923262   -0.865862    0.083440
 C         16.103491    1.887850   -0.032058
 O         13.687008    1.991537   -0.105722
 C         17.174255   -0.263696    0.088377
 H         15.866234   -1.943742    0.132534
 C         17.299595    1.149884    0.040450
 H         16.166936    2.964375   -0.108053
 C         13.725245    3.413551   -0.162804
 O         18.342356   -0.966415    0.141954
 C         18.581235    1.854374    0.072534
 H         14.207481    3.833271    0.728055
 H         14.247063    3.760408   -1.062660
 H         12.683604    3.734106   -0.199314
 C         18.302972   -2.388515    0.168692
 C         18.773513    3.210692    0.279154
 S         20.141950    1.082745   -0.207127
 H         17.784420   -2.755136    1.062866
 H         17.817065   -2.790601   -0.728583
 H         19.344262   -2.711907    0.194850
 C         20.128282    3.626170    0.201642
 H         17.963802    3.896242    0.500734
 C         20.982102    2.588565   -0.064609
 H         20.451737    4.651314    0.346180
 H         22.059393    2.616455   -0.164406
