       112
S0: Total Energy = -5938.38702448
 C         20.858718    2.584100    0.680906
 C         20.011038    3.592167    1.050770
 S         19.987459    1.149466    0.242864
 C         18.639202    3.212641    0.988649
 H         20.350880    4.572791    1.366183
 C         18.439551    1.914303    0.572059
 H         17.825346    3.871634    1.270780
 C         17.174687    1.196548    0.391233
 C         15.977815    1.901663    0.160584
 C         17.099761   -0.208382    0.444869
 C         14.769856    1.236629   -0.001913
 C         15.892423   -0.873859    0.280389
 H         17.996178   -0.788257    0.647224
 C         14.694253   -0.169115    0.050825
 H         13.874007    1.817238   -0.203656
 C         13.430975   -0.886126   -0.128796
 C         13.240356   -2.199063   -0.508868
 S         11.887736   -0.102930    0.135074
 C         11.882347   -2.579081   -0.591545
 H         14.054976   -2.872280   -0.752723
 C         10.987844   -1.566258   -0.280443
 H         11.556362   -3.569105   -0.874577
 C          9.531467   -1.633958   -0.246419
 C          8.810848   -2.878777   -0.402968
 C          8.711512   -0.525166   -0.069249
 N          9.374053   -4.073627   -0.591610
 C          7.351018   -2.934416   -0.390136
 C          7.278498   -0.590223    0.009382
 O          9.287810    0.707881    0.101525
 S          8.164152   -5.172539   -0.746023
 N          6.876878   -4.167733   -0.576084
 C          6.541701   -1.755056   -0.173070
 O          6.613916    0.591053    0.220736
 C          9.168205    1.609559   -1.018959
 C          5.084301   -1.802436   -0.145825
 C          6.675198    1.103381    1.568777
 H          9.709027    2.512292   -0.731467
 H          9.630005    1.171639   -1.910064
 H          8.118822    1.844360   -1.210755
 C          4.265811   -2.921520   -0.173937
 S          4.080484   -0.348209   -0.109754
 H          7.706437    1.338473    1.841779
 H          6.069707    2.010758    1.568581
 H          6.250687    0.377790    2.270436
 C          2.883820   -2.629393   -0.170072
 H          4.663129   -3.925125   -0.212459
 C          2.598093   -1.279228   -0.146876
 H          2.120395   -3.398646   -0.211657
 C          1.287025   -0.630148   -0.137622
 C          0.140227   -1.332750    0.283301
 C          1.112759    0.706504   -0.548635
 C         -1.111118   -0.732551    0.289351
 C         -0.138504    1.306658   -0.542555
 H          1.965974    1.275373   -0.907525
 C         -1.285343    0.604286   -0.121105
 H         -1.964698   -1.302184    0.646086
 C         -2.595653    1.254782   -0.114274
 C         -2.878252    2.605664   -0.089417
 S         -4.080314    0.327117   -0.138767
 C         -4.259322    2.901197   -0.088953
 H         -2.113037    3.372883   -0.043724
 C         -5.080547    1.783913   -0.109829
 H         -4.654060    3.906383   -0.071806
 C         -6.537866    1.741760   -0.142938
 C         -7.342643    2.932174   -0.311833
 C         -7.279140    0.572664   -0.013008
 N         -6.863573    4.170104   -0.447667
 C         -8.802685    2.883112   -0.326093
 C         -8.712457    0.517091   -0.093673
 O         -6.619035   -0.619661    0.143349
 S         -8.146684    5.186260   -0.575987
 N         -9.361048    4.086971   -0.465670
 C         -9.528164    1.635909   -0.219516
 O         -9.293524   -0.720333    0.019756
 C         -6.685585   -1.196313    1.464588
 C        -10.985067    1.575225   -0.250145
 C         -9.182159   -1.566159   -1.144643
 H         -6.083284   -2.104872    1.421888
 H         -6.260654   -0.506936    2.201708
 H         -7.718154   -1.441086    1.723606
 C        -11.876697    2.604566   -0.511026
 S        -11.889231    0.096369    0.096301
 H         -8.134656   -1.798535   -1.349480
 H         -9.729613   -2.477880   -0.901757
 H         -9.641924   -1.080850   -2.011868
 C        -13.236104    2.227726   -0.434558
 H        -11.547874    3.608414   -0.736143
 C        -13.430390    0.901736   -0.105831
 H        -14.050129    2.927038   -0.591476
 C        -14.695996    0.184266    0.055533
 C        -15.874710    0.664566   -0.548323
 C        -14.792431   -0.997885    0.815542
 C        -17.084040   -0.000697   -0.397693
 C        -16.002516   -1.661688    0.967652
 H        -13.913013   -1.386158    1.321822
 C        -17.179942   -1.182088    0.362168
 H        -17.964183    0.387909   -0.902784
 C        -18.446676   -1.901441    0.522765
 C        -18.647618   -3.231799    0.820771
 S        -19.995613   -1.088554    0.351832
 C        -20.021027   -3.600991    0.906101
 H        -17.832273   -3.935436    0.948493
 C        -20.868604   -2.552475    0.674125
 H        -20.361692   -4.607695    1.123074
 H        -21.950362   -2.547146    0.674073
 H         16.000194    2.984128    0.079643
 H         15.871906   -1.956368    0.359546
 H         -0.235054    2.327951   -0.897739
 H          0.236539   -2.354631    0.636962
 H        -15.836023    1.555226   -1.167927
 H        -16.043063   -2.550913    1.589324
 H         21.939523    2.594125    0.636414
       112
T1: Total Energy = -5938.34237355
 C         20.817967    2.581481   -0.545211
 C         20.008094    3.626855   -0.192022
 S         19.916560    1.112667   -0.734379
 C         18.641627    3.249381   -0.066132
 H         20.373297    4.633422   -0.019362
 C         18.406312    1.914018   -0.322000
 H         17.859680    3.939296    0.231147
 C         17.137399    1.188638   -0.287926
 C         15.911175    1.879449   -0.380070
 C         17.080561   -0.214472   -0.160122
 C         14.700530    1.207149   -0.338962
 C         15.871049   -0.889241   -0.125134
 H         18.000568   -0.784440   -0.064194
 C         14.640206   -0.199436   -0.212787
 H         13.782740    1.781113   -0.428578
 C         13.377912   -0.915192   -0.175733
 C         13.167770   -2.292814   -0.220852
 S         11.840319   -0.073021   -0.062845
 C         11.826539   -2.670808   -0.171709
 H         13.972868   -3.013915   -0.305293
 C         10.918347   -1.594106   -0.087425
 H         11.483493   -3.694025   -0.199768
 C          9.499802   -1.659567   -0.003973
 C          8.781610   -2.917834    0.078989
 C          8.663368   -0.485554    0.016948
 N          9.348308   -4.122012    0.061593
 C          7.325023   -2.962922    0.186668
 C          7.289755   -0.526133    0.171871
 O          9.282572    0.740219   -0.070164
 S          8.127956   -5.254814    0.173745
 N          6.837000   -4.199192    0.247516
 C          6.527614   -1.750031    0.226082
 O          6.594669    0.659969    0.225393
 C          9.083840    1.441680   -1.313463
 C          5.109843   -1.770769    0.300377
 C          6.750133    1.408999    1.447141
 H          9.692561    2.345006   -1.246423
 H          9.425063    0.830647   -2.155961
 H          8.031069    1.704829   -1.440203
 C          4.268539   -2.902447    0.401908
 S          4.094514   -0.310832    0.244792
 H          7.784491    1.740839    1.563398
 H          6.086077    2.270123    1.355032
 H          6.448214    0.802880    2.307984
 C          2.908732   -2.609341    0.438725
 H          4.675680   -3.901296    0.445927
 C          2.610147   -1.246386    0.364697
 H          2.150637   -3.380012    0.519083
 C          1.308459   -0.614269    0.379398
 C          0.123495   -1.382366    0.479772
 C          1.154494    0.790386    0.294289
 C         -1.124608   -0.785737    0.498724
 C         -0.094516    1.384968    0.309032
 H          2.031314    1.425230    0.205683
 C         -1.275516    0.616524    0.415767
 H         -2.003012   -1.417429    0.595283
 C         -2.583143    1.257540    0.437402
 C         -2.879671    2.593852    0.640605
 S         -4.060329    0.344527    0.196091
 C         -4.257620    2.886414    0.605368
 H         -2.126766    3.349187    0.836095
 C         -5.069618    1.783110    0.376245
 H         -4.660661    3.878728    0.743884
 C         -6.520592    1.749419    0.255315
 C         -7.323588    2.952909    0.227788
 C         -7.259637    0.573851    0.162017
 N         -6.847434    4.196357    0.311525
 C         -8.780071    2.907714    0.125326
 C         -8.684536    0.533022   -0.007345
 O         -6.598490   -0.627436    0.170929
 S         -8.129479    5.221519    0.270947
 N         -9.339135    4.119081    0.142713
 C         -9.500920    1.659494   -0.002929
 O         -9.262367   -0.705792   -0.121104
 C         -6.742592   -1.408052    1.376746
 C        -10.952567    1.605458   -0.122864
 C         -9.076342   -1.362661   -1.393159
 H         -6.125251   -2.295332    1.230000
 H         -6.376603   -0.843088    2.240367
 H         -7.786057   -1.695009    1.524084
 C        -11.837374    2.664784   -0.260473
 S        -11.862605    0.090614   -0.073820
 H         -8.017212   -1.565220   -1.567509
 H         -9.632868   -2.298487   -1.327043
 H         -9.485198   -0.747628   -2.201514
 C        -13.195305    2.281949   -0.322285
 H        -11.504883    3.691572   -0.300000
 C        -13.396574    0.919780   -0.227093
 H        -14.004888    2.998565   -0.407318
 C        -14.663096    0.186799   -0.256531
 C        -15.812176    0.763205   -0.832948
 C        -14.789844   -1.106728    0.286834
 C        -17.022026    0.082781   -0.862212
 C        -16.000578   -1.785927    0.259305
 H        -13.935425   -1.575697    0.766900
 C        -17.148113   -1.210090   -0.319169
 H        -17.877349    0.551642   -1.341076
 C        -18.415444   -1.945351   -0.351286
 C        -18.620494   -3.307096   -0.299648
 S        -19.960123   -1.113653   -0.458374
 C        -19.993424   -3.684209   -0.350791
 H        -17.807131   -4.023059   -0.254441
 C        -20.836484   -2.610507   -0.440596
 H        -20.336605   -4.712976   -0.329892
 H        -21.916846   -2.604269   -0.495392
 H         15.910539    2.957209   -0.509114
 H         15.879276   -1.967719   -0.007270
 H         -0.161650    2.464334    0.218667
 H          0.184203   -2.463090    0.551339
 H        -15.748597    1.745742   -1.290297
 H        -16.066586   -2.767362    0.718898
 H         21.887339    2.582870   -0.708432
       112
S1: Total Energy = -5938.32351108
 C         20.834562    2.592146    0.294605
 C         19.995120    3.623257    0.619582
 S         19.955331    1.133017   -0.028849
 C         18.623661    3.242493    0.614516
 H         20.342120    4.621687    0.862857
 C         18.413775    1.918747    0.286477
 H         17.817477    3.920193    0.872872
 C         17.147979    1.193770    0.184226
 C         15.934340    1.888694    0.004654
 C         17.081840   -0.212106    0.263862
 C         14.724965    1.216790   -0.081791
 C         15.873559   -0.885488    0.173447
 H         17.990289   -0.785944    0.425455
 C         14.656123   -0.191366   -0.001632
 H         13.817784    1.792949   -0.240359
 C         13.393421   -0.910117   -0.093953
 C         13.191083   -2.268353   -0.290242
 S         11.851851   -0.086228    0.041925
 C         11.839502   -2.646641   -0.333923
 H         14.000559   -2.977449   -0.423404
 C         10.940577   -1.590182   -0.175606
 H         11.503769   -3.662487   -0.480045
 C          9.497345   -1.650741   -0.146145
 C          8.776577   -2.904339   -0.179509
 C          8.677464   -0.507168   -0.081014
 N          9.341695   -4.113230   -0.253903
 C          7.318176   -2.953179   -0.150258
 C          7.268376   -0.554800    0.009220
 O          9.276915    0.730367   -0.051275
 S          8.121605   -5.228741   -0.288029
 N          6.831608   -4.194966   -0.206963
 C          6.519825   -1.748790   -0.052095
 O          6.590294    0.635856    0.106369
 C          9.154261    1.499872   -1.264485
 C          5.080854   -1.778774   -0.022435
 C          6.694713    1.309148    1.378498
 H          9.727984    2.412926   -1.097481
 H          9.578448    0.948717   -2.110503
 H          8.107051    1.743760   -1.458840
 C          4.247213   -2.908277   -0.005216
 S          4.079207   -0.320032   -0.038337
 H          7.727939    1.606384    1.570174
 H          6.056794    2.190931    1.300350
 H          6.330265    0.661196    2.182653
 C          2.882954   -2.618220    0.000457
 H          4.651697   -3.909298    0.000760
 C          2.586086   -1.252560   -0.015901
 H          2.124243   -3.392092    0.019690
 C          1.294830   -0.622152   -0.013914
 C          0.099719   -1.392193   -0.017943
 C          1.143004    0.791151   -0.008952
 C         -1.142318   -0.796807   -0.015517
 C         -0.099014    1.386512   -0.006292
 H          2.024130    1.425983   -0.006911
 C         -1.294108    0.616476   -0.008638
 H         -2.023467   -1.431614   -0.018747
 C         -2.585246    1.247203   -0.005375
 C         -2.881461    2.612813    0.022261
 S         -4.078781    0.315606   -0.035874
 C         -4.245570    2.903546    0.018546
 H         -2.122418    3.386153    0.048104
 C         -5.079718    1.774676   -0.008323
 H         -4.649472    3.904714    0.032610
 C         -6.518729    1.745831   -0.039141
 C         -7.316282    2.951498   -0.128192
 C         -7.268142    0.552080    0.011333
 N         -6.828904    4.193338   -0.174625
 C         -8.774715    2.903935   -0.158977
 C         -8.677403    0.506116   -0.080881
 O         -6.590922   -0.639744    0.098885
 S         -8.117860    5.228547   -0.248697
 N         -9.338644    4.113861   -0.224412
 C         -9.496539    1.650646   -0.135281
 O         -9.277794   -0.731071   -0.064413
 C         -6.697713   -1.324406    1.364709
 C        -10.939948    1.591153   -0.164458
 C         -9.150957   -1.490681   -1.283743
 H         -6.059791   -2.205549    1.279783
 H         -6.334636   -0.683740    2.175299
 H         -7.731332   -1.623206    1.551847
 C        -11.838269    2.650459   -0.305984
 S        -11.852134    0.083053    0.018179
 H         -8.103541   -1.736648   -1.474117
 H         -9.729259   -2.402755   -1.127892
 H         -9.568373   -0.930654   -2.127240
 C        -13.190096    2.271887   -0.271987
 H        -11.502089    3.670240   -0.420117
 C        -13.393260    0.911146   -0.095371
 H        -13.999425    2.988876   -0.353779
 C        -14.656593    0.192211   -0.011174
 C        -15.868753    0.810809   -0.388525
 C        -14.731155   -1.140780    0.448717
 C        -17.077580    0.136686   -0.311725
 C        -15.941222   -1.812335    0.529090
 H        -13.828791   -1.650191    0.774822
 C        -17.149629   -1.194165    0.147394
 H        -17.981462    0.643678   -0.638218
 C        -18.416269   -1.920638    0.226916
 C        -18.625560   -3.283691    0.273913
 S        -19.960140   -1.080112    0.284492
 C        -19.998203   -3.652607    0.349127
 H        -17.817644   -4.005582    0.228659
 C        -20.839207   -2.572794    0.360883
 H        -20.344689   -4.679787    0.385194
 H        -21.919714   -2.560666    0.411732
 H         15.944631    2.969723   -0.093853
 H         15.868903   -1.966703    0.266304
 H         -0.157248    2.469559   -0.004050
 H          0.157991   -2.475225   -0.024765
 H        -15.859308    1.826015   -0.771847
 H        -15.956312   -2.825440    0.918713
 H         21.913946    2.598901    0.223112
