       112
S0: Total Energy = -6533.76156188
 C         17.673523    7.233049    0.989259
 C         18.368912    6.452194    0.105879
 S         16.133603    6.547266    1.379202
 C         17.659795    5.276803   -0.262769
 H         19.351903    6.705520   -0.275663
 C         16.421664    5.157530    0.338262
 H         18.052608    4.548649   -0.962951
 C         15.472427    4.054406    0.185908
 C         14.154265    4.100992    0.652137
 C         15.834513    2.855365   -0.470675
 C         13.262482    3.048055    0.483124
 C         14.945204    1.810396   -0.645960
 H         16.845577    2.744423   -0.845344
 C         13.613215    1.861136   -0.171272
 C         12.697118    0.736173   -0.351182
 C         13.020117   -0.522347   -0.825285
 S         10.977450    0.827879   -0.016673
 C         11.920509   -1.398728   -0.922585
 H         14.026706   -0.823725   -1.091394
 C         10.713404   -0.838785   -0.530369
 H         12.002466   -2.420587   -1.261888
 F         13.692799    5.191017    1.302532
 C          9.403547   -1.480071   -0.486363
 C          9.221557   -2.891388   -0.747735
 C          8.224179   -0.800096   -0.202886
 N         10.197366   -3.748621   -1.053458
 C          7.902320   -3.518287   -0.722041
 C          6.936373   -1.430767   -0.110266
 O          8.281669    0.542008    0.067333
 S          9.507995   -5.219034   -1.294044
 N          7.940225   -4.819373   -1.015520
 C          6.707788   -2.774329   -0.386179
 O          5.872485   -0.630046    0.213452
 C          7.754787    1.411144   -0.958970
 C          5.388257   -3.394691   -0.336547
 C          5.794692   -0.222284    1.596926
 H          7.926279    2.427077   -0.601250
 H          8.292686    1.255792   -1.899897
 H          6.686042    1.234647   -1.097801
 C          5.077391   -4.740908   -0.462930
 S          3.903308   -2.463639   -0.141040
 H          6.655125    0.395809    1.862309
 H          4.873834    0.355777    1.682485
 H          5.740458   -1.100756    2.248186
 C          3.697997   -5.021387   -0.399209
 H          5.832548   -5.499345   -0.606419
 C          2.902231   -3.902499   -0.227620
 H          3.308290   -6.029048   -0.485291
 C          1.446348   -3.878238   -0.108163
 C          0.692906   -2.699133   -0.052554
 C          0.689396   -5.073229   -0.050145
 C         -0.692893   -2.699130    0.052265
 F          1.297181   -1.492517   -0.096652
 C         -0.689365   -5.073226    0.050233
 H          1.204700   -6.026075   -0.080894
 C         -1.446327   -3.878232    0.108059
 C         -2.902210   -3.902484    0.227521
 C         -3.697973   -5.021358    0.399213
 S         -3.903291   -2.463634    0.140810
 C         -5.077365   -4.740871    0.462953
 H         -3.308266   -6.029012    0.485370
 C         -5.388233   -3.394663    0.336479
 H         -5.832518   -5.499295    0.606532
 C         -6.707764   -2.774301    0.386138
 C         -7.902265   -3.518247    0.722143
 C         -6.936388   -1.430765    0.110125
 N         -7.940132   -4.819311    1.015723
 C         -9.221507   -2.891361    0.747885
 C         -8.224195   -0.800103    0.202782
 O         -5.872545   -0.630052   -0.213765
 S         -9.507878   -5.218971    1.294388
 N        -10.197284   -3.748585    1.053741
 C         -9.403531   -1.480068    0.486413
 O         -8.281737    0.541969   -0.067580
 C         -5.794907   -0.222416   -1.597284
 C        -10.713387   -0.838784    0.530461
 C         -7.754842    1.411242    0.958600
 H         -4.874092    0.355691   -1.682987
 H         -5.740687   -1.100945   -2.248468
 H         -6.655403    0.395604   -1.862639
 C        -11.920452   -1.398676    0.922868
 S        -10.977487    0.827804    0.016552
 H         -6.686078    1.234829    1.097380
 H         -7.926425    2.427128    0.600790
 H         -8.292669    1.255949    1.899579
 C        -13.020060   -0.522293    0.825612
 H        -12.002378   -2.420493    1.262309
 C        -12.697108    0.736177    0.351340
 H        -14.026610   -0.823630    1.091916
 C        -13.613219    1.861124    0.171392
 C        -14.945265    1.810315    0.645913
 C        -13.262443    3.048100   -0.482882
 C        -15.834584    2.855271    0.470596
 C        -14.154237    4.101021   -0.651932
 C        -15.472451    4.054370   -0.185853
 H        -16.845701    2.744266    0.845103
 F        -13.692730    5.191103   -1.302201
 C        -16.421689    5.157483   -0.338228
 C        -17.659782    5.276794    0.262868
 S        -16.133721    6.547121   -1.379330
 C        -18.368927    6.452149   -0.105817
 H        -18.052526    4.548703    0.963158
 C        -17.673621    7.232940   -0.989317
 H        -19.351887    6.705495    0.275793
 H        -17.968025    8.177460   -1.427388
 H        -15.284058    0.925077    1.171485
 H         -1.204661   -6.026072    0.081144
 H         15.283940    0.925212   -1.171660
 F         12.018909    3.220357    0.979281
 F         -1.297176   -1.492511    0.096182
 F        -12.018818    3.220474   -0.978882
 H         17.967893    8.177605    1.427280
       112
T1: Total Energy = -6533.71626440
 C         17.608098    7.341071    0.270277
 C         18.474642    6.287550    0.147905
 S         15.959267    6.820479    0.288252
 C         17.807779    5.036762    0.067400
 H         19.552995    6.396795    0.115368
 C         16.428734    5.130060    0.128113
 H         18.337600    4.096888   -0.033864
 C         15.470608    4.029952    0.074691
 C         14.081860    4.210297    0.122390
 C         15.895179    2.682407   -0.030890
 C         13.185699    3.151916    0.068721
 C         15.006015    1.627808   -0.084743
 H         16.956011    2.464920   -0.068649
 C         13.599489    1.813833   -0.038171
 C         12.682897    0.691935   -0.098304
 C         13.032391   -0.654434   -0.231789
 S         10.933590    0.854099   -0.006529
 C         11.950386   -1.528860   -0.259310
 H         14.056386   -0.999615   -0.311778
 C         10.690904   -0.900264   -0.151400
 H         12.041329   -2.600107   -0.355810
 F         13.554103    5.448933    0.224080
 C          9.413074   -1.524944   -0.134170
 C          9.247848   -2.966999   -0.166070
 C          8.180367   -0.778535   -0.074363
 N         10.242538   -3.847520   -0.238540
 C          7.925478   -3.587966   -0.126668
 C          6.931788   -1.366868    0.017283
 O          8.270237    0.592677   -0.052467
 S          9.566958   -5.372469   -0.257750
 N          7.964476   -4.916641   -0.171740
 C          6.713297   -2.792246   -0.041079
 O          5.824309   -0.559197    0.116589
 C          7.815165    1.264320   -1.245133
 C          5.416936   -3.372018   -0.025664
 C          5.650622    0.101557    1.387028
 H          8.031790    2.322387   -1.090381
 H          8.364155    0.900728   -2.120204
 H          6.742116    1.113748   -1.383165
 C          5.093379   -4.748467   -0.024531
 S          3.911569   -2.426845   -0.034002
 H          6.464795    0.807655    1.565359
 H          4.699169    0.631043    1.318167
 H          5.603949   -0.634932    2.196170
 C          3.730444   -5.017246   -0.025410
 H          5.859903   -5.508466   -0.021277
 C          2.915941   -3.878735   -0.031758
 H          3.340979   -6.028354   -0.017534
 C          1.469856   -3.862146   -0.038101
 C          0.703713   -2.682763   -0.016837
 C          0.711051   -5.063525   -0.064409
 C         -0.682511   -2.690166   -0.021052
 F          1.304944   -1.475617    0.008291
 C         -0.667919   -5.068541   -0.067424
 H          1.229508   -6.014526   -0.083852
 C         -1.435142   -3.874938   -0.046625
 C         -2.889734   -3.906342   -0.052903
 C         -3.691290   -5.036154   -0.118604
 S         -3.893144   -2.466302    0.023026
 C         -5.070514   -4.763331   -0.101915
 H         -3.303099   -6.045908   -0.182134
 C         -5.381203   -3.410864   -0.027732
 H         -5.829537   -5.530446   -0.138457
 C         -6.704339   -2.803678    0.031171
 C         -7.913898   -3.589054    0.150254
 C         -6.923364   -1.430383   -0.027972
 N         -7.963027   -4.920828    0.212134
 C         -9.235928   -2.969348    0.191192
 C         -8.218008   -0.819343    0.081533
 O         -5.844567   -0.593174   -0.136281
 S         -9.543703   -5.354850    0.307316
 N        -10.224566   -3.861355    0.275629
 C         -9.409526   -1.533040    0.164350
 O         -8.267648    0.549424    0.041290
 C         -5.676824    0.052172   -1.417995
 C        -10.723606   -0.903958    0.225572
 C         -7.820526    1.227959    1.235710
 H         -4.754563    0.628788   -1.338632
 H         -5.575907   -0.698046   -2.208997
 H         -6.520229    0.713928   -1.625929
 C        -11.949556   -1.517208    0.441598
 S        -10.964593    0.828860   -0.000994
 H         -6.760893    1.031644    1.412804
 H         -7.981941    2.290251    1.048978
 H         -8.416644    0.910398    2.097402
 C        -13.046480   -0.633046    0.422701
 H        -12.044853   -2.579888    0.607876
 C        -12.702606    0.686069    0.187064
 H        -14.063424   -0.966927    0.593365
 C        -13.619880    1.819675    0.087431
 C        -15.020987    1.630029    0.029949
 C        -13.200426    3.154570    0.042794
 C        -15.908891    2.687422   -0.051884
 C        -14.093406    4.216929   -0.038078
 C        -15.479828    4.034771   -0.082875
 H        -16.969074    2.470388   -0.112464
 F        -13.561219    5.457776   -0.071902
 C        -16.437142    5.138985   -0.154341
 C        -17.809993    5.057780   -0.022192
 S        -15.970810    6.808620   -0.459833
 C        -18.478237    6.303577   -0.168571
 H        -18.333199    4.131761    0.186306
 C        -17.616942    7.339087   -0.412738
 H        -19.553381    6.421634   -0.090296
 H        -17.848736    8.385997   -0.557488
 H        -15.416285    0.620886    0.030161
 H         -1.179736   -6.023370   -0.083645
 H         15.403459    0.622913   -0.162088
 F         11.874639    3.463538    0.123642
 F         -1.296332   -1.488344    0.002037
 F        -11.887556    3.466545    0.080189
 H         17.839808    8.394973    0.349902
       112
S1: Total Energy = -6533.69747027
 C         17.613055    7.337443    0.285700
 C         18.480743    6.287103    0.145402
 S         15.965365    6.812606    0.310092
 C         17.816084    5.035670    0.056073
 H         19.558629    6.399071    0.106062
 C         16.437277    5.124896    0.127961
 H         18.347161    4.098138   -0.059504
 C         15.480720    4.023447    0.069577
 C         14.092249    4.199986    0.128872
 C         15.906557    2.678070   -0.052696
 C         13.197770    3.139856    0.069928
 C         15.018309    1.622254   -0.111537
 H         16.967532    2.462587   -0.099138
 C         13.612791    1.804999   -0.054266
 C         12.696082    0.678862   -0.122112
 C         13.040833   -0.657973   -0.288450
 S         10.950780    0.835217    0.001728
 C         11.948657   -1.534504   -0.313869
 H         14.062108   -1.004354   -0.395393
 C         10.707364   -0.908482   -0.171886
 H         12.040769   -2.603777   -0.430965
 F         13.562104    5.436447    0.247347
 C          9.404832   -1.531924   -0.139727
 C          9.232849   -2.968161   -0.172233
 C          8.201485   -0.801037   -0.075498
 N         10.225098   -3.859623   -0.245561
 C          7.909724   -3.584749   -0.145205
 C          6.923795   -1.397154    0.015719
 O          8.272281    0.570175   -0.043977
 S          9.540389   -5.363121   -0.282054
 N          7.949803   -4.916987   -0.203394
 C          6.702174   -2.789593   -0.047453
 O          5.833425   -0.570218    0.115552
 C          7.832876    1.243212   -1.242743
 C          5.390190   -3.378623   -0.017809
 C          5.664714    0.093468    1.386963
 H          8.026404    2.303562   -1.074727
 H          8.409251    0.896249   -2.106770
 H          6.766174    1.074851   -1.406933
 C          5.069690   -4.746648   -0.002305
 S          3.898964   -2.428244   -0.027360
 H          6.494653    0.778094    1.573879
 H          4.727779    0.646658    1.309051
 H          5.591382   -0.644347    2.192757
 C          3.704208   -5.015349    0.006389
 H          5.833321   -5.509725    0.000931
 C          2.891385   -3.874506   -0.006397
 H          3.313744   -6.025817    0.024785
 C          1.455690   -3.851938   -0.003468
 C          0.689961   -2.664645   -0.001569
 C          0.686952   -5.053977   -0.002002
 C         -0.689903   -2.664642    0.001649
 F          1.301855   -1.462858   -0.003387
 C         -0.686903   -5.053974    0.001878
 H          1.202441   -6.006659   -0.005001
 C         -1.455636   -3.851932    0.003447
 C         -2.891332   -3.874493    0.006372
 C         -3.704160   -5.015331   -0.006512
 S         -3.898903   -2.428228    0.027445
 C         -5.069642   -4.746624    0.002190
 H         -3.313701   -6.025799   -0.024992
 C         -5.390133   -3.378599    0.017809
 H         -5.833275   -5.509697   -0.001121
 C         -6.702108   -2.789550    0.047479
 C         -7.909683   -3.584683    0.145131
 C         -6.923689   -1.397101   -0.015580
 N         -7.949810   -4.916923    0.203201
 C         -9.232790   -2.968057    0.172163
 C         -8.201365   -0.800954    0.075646
 O         -5.833284   -0.570197   -0.115304
 S         -9.540412   -5.363010    0.281799
 N        -10.225073   -3.859488    0.245395
 C         -9.404736   -1.531817    0.139769
 O         -8.272109    0.570263    0.044260
 C         -5.664469    0.093556   -1.386666
 C        -10.707275   -0.908388    0.171950
 C         -7.832721    1.243161    1.243111
 H         -4.727519    0.646709   -1.308664
 H         -5.591111   -0.644216   -2.192498
 H         -6.494371    0.778222   -1.573599
 C        -11.948549   -1.534466    0.313844
 S        -10.950745    0.835325   -0.001459
 H         -6.766033    1.074738    1.407325
 H         -8.026198    2.303536    1.075194
 H         -8.409146    0.896136    2.107080
 C        -13.040761   -0.657980    0.288405
 H        -12.040624   -2.603753    0.430851
 C        -12.696057    0.678875    0.122142
 H        -14.062029   -1.004412    0.395248
 C        -13.612815    1.804969    0.054236
 C        -15.018332    1.622142    0.111278
 C        -13.197849    3.139859   -0.069797
 C        -15.906629    2.677913    0.052376
 C        -14.092378    4.199942   -0.128800
 C        -15.480849    4.023321   -0.069732
 H        -16.967600    2.462366    0.098629
 F        -13.562284    5.436442   -0.247107
 C        -16.437458    5.124722   -0.128178
 C        -17.816269    5.035418   -0.056446
 S        -15.965617    6.812465   -0.310179
 C        -18.480986    6.286816   -0.145827
 H        -18.347306    4.097854    0.059047
 C        -17.613341    7.337206   -0.286010
 H        -19.558884    6.398723   -0.106613
 H        -17.843385    8.390686   -0.375439
 H        -15.416545    0.618358    0.199922
 H         -1.202397   -6.006655    0.004791
 H         15.416566    0.618500   -0.200325
 F         11.885866    3.448602    0.137525
 F         -1.301792   -1.462853    0.003569
 F        -11.885952    3.448682   -0.137175
 H         17.843051    8.390934    0.375119
