       112
S0: Total Energy = -6533.77853253
 C         20.778889    2.622716    0.705177
 C         19.931571    3.640682    1.047393
 S         19.909792    1.185096    0.282092
 C         18.558972    3.270564    0.972969
 H         20.271742    4.626411    1.345517
 C         18.358733    1.962560    0.580221
 H         17.746919    3.941757    1.215517
 C         17.111996    1.218133    0.407167
 C         15.859100    1.843795    0.275364
 C         17.084472   -0.188348    0.347027
 C         14.676653    1.151615    0.094709
 C         15.902261   -0.881232    0.165345
 H         17.994673   -0.766947    0.462185
 C         14.648459   -0.255948    0.032266
 H         13.766640    1.730392   -0.019041
 C         13.402974   -0.998041   -0.144244
 C         13.209894   -2.312396   -0.525463
 S         11.857839   -0.210061    0.116422
 C         11.850814   -2.683008   -0.617440
 H         14.020984   -2.990656   -0.750554
 C         10.958133   -1.668657   -0.306804
 H         11.523392   -3.672161   -0.901490
 F         15.783455    3.195904    0.306125
 F         15.979986   -2.232673    0.135461
 C          9.501545   -1.733054   -0.276648
 C          8.778498   -2.973399   -0.455142
 C          8.685660   -0.623713   -0.083740
 N          9.338431   -4.166349   -0.664031
 C          7.319227   -3.024901   -0.445702
 C          7.252344   -0.686382   -0.005602
 O          9.267255    0.603112    0.105347
 S          8.125891   -5.258656   -0.839788
 N          6.841680   -4.253182   -0.654326
 C          6.513878   -1.846875   -0.208446
 O          6.589029    0.490760    0.226161
 C          9.140905    1.530490   -0.994735
 C          5.056467   -1.891081   -0.181670
 C          6.660082    0.989187    1.580071
 H          9.689539    2.423437   -0.692459
 H          9.591240    1.109172   -1.899407
 H          8.091047    1.774592   -1.170311
 C          4.235294   -3.007169   -0.232120
 S          4.059279   -0.436376   -0.111795
 H          7.692974    1.222486    1.847451
 H          6.053663    1.895671    1.593324
 H          6.241841    0.255178    2.276489
 C          2.854093   -2.716281   -0.215099
 H          4.629682   -4.010959   -0.289148
 C          2.571186   -1.364008   -0.165614
 H          2.091598   -3.481422   -0.254348
 C          1.279269   -0.684503   -0.155906
 C          0.066001   -1.341570    0.124260
 C          1.159956    0.695127   -0.419427
 C         -1.159188   -0.703603    0.148265
 F          0.074968   -2.666062    0.406871
 C         -0.065162    1.333178   -0.395024
 H          2.031475    1.289775   -0.670406
 C         -1.278490    0.676094   -0.114874
 H         -2.031055   -1.298650    0.396870
 F         -0.074213    2.657690   -0.676914
 C         -2.570085    1.356160   -0.108345
 C         -2.851621    2.708524   -0.052804
 S         -4.059040    0.429907   -0.156913
 C         -4.232369    3.001056   -0.040612
 H         -2.088365    3.472461   -0.005327
 C         -5.054823    1.885741   -0.089888
 H         -4.625698    4.006054   -0.000765
 C         -6.512147    1.846078   -0.123430
 C         -7.315711    3.043074   -0.244122
 C         -7.252600    0.672173   -0.037657
 N         -6.836299    4.285109   -0.332490
 C         -8.775095    2.995444   -0.256403
 C         -8.686127    0.620581   -0.119509
 O         -6.590939   -0.523456    0.070713
 S         -8.118778    5.306085   -0.417486
 N         -9.333197    4.204022   -0.346958
 C         -9.500149    1.744995   -0.198036
 O         -9.269505   -0.618474   -0.056723
 C         -6.667267   -1.164735    1.362634
 C        -10.957081    1.686217   -0.227388
 C         -9.153900   -1.421967   -1.251550
 H         -6.058397   -2.066046    1.281216
 H         -6.254509   -0.509049    2.136226
 H         -7.700581   -1.428037    1.598352
 C        -11.848825    2.725907   -0.441524
 S        -11.857895    0.194701    0.055578
 H         -8.105921   -1.648272   -1.459759
 H         -9.703731   -2.340787   -1.043982
 H         -9.608876   -0.903848   -2.101961
 C        -13.208358    2.349494   -0.384022
 H        -11.520565    3.737891   -0.627202
 C        -13.402641    1.009229   -0.108623
 H        -14.019188    3.050158   -0.526045
 C        -14.649085    0.264066    0.047656
 C        -15.894055    0.748251   -0.395223
 C        -14.686420   -1.009716    0.649271
 C        -17.076339    0.044066   -0.264570
 F        -15.962116    1.956865   -1.001952
 C        -15.868977   -1.712901    0.780316
 H        -13.784566   -1.462598    1.046428
 C        -17.113068   -1.228222    0.337594
 H        -17.978565    0.497233   -0.660963
 F        -15.802902   -2.922628    1.386119
 C        -18.360303   -1.974880    0.497159
 C        -18.559640   -3.315579    0.758117
 S        -19.913114   -1.158670    0.349635
 C        -19.932395   -3.686405    0.825368
 H        -17.746358   -4.016761    0.883094
 C        -20.781059   -2.632406    0.624855
 H        -20.271599   -4.698991    1.014673
 H        -21.862815   -2.627294    0.626026
 H         21.860091    2.627458    0.670325
       112
T1: Total Energy = -6533.73322790
 C         20.740039    2.617093    0.640999
 C         19.900190    3.626583    1.026682
 S         19.865054    1.181558    0.226632
 C         18.528725    3.251868    0.992942
 H         20.246272    4.609329    1.327511
 C         18.319709    1.947306    0.586254
 H         17.723503    3.916221    1.272569
 C         17.074548    1.201141    0.441721
 C         15.805278    1.814134    0.434324
 C         17.056116   -0.200154    0.288110
 C         14.623621    1.118935    0.286939
 C         15.875133   -0.897970    0.137736
 H         17.977279   -0.772505    0.299612
 C         14.601683   -0.286473    0.128802
 H         13.703639    1.692644    0.284748
 C         13.361506   -1.019082   -0.023360
 C         13.157348   -2.377228   -0.279044
 S         11.815069   -0.187529    0.102584
 C         11.816141   -2.742439   -0.376471
 H         13.966994   -3.082053   -0.399924
 C         10.901880   -1.681522   -0.201245
 H         11.478635   -3.749115   -0.571638
 F         15.716104    3.158886    0.565368
 F         15.972702   -2.241270    0.007209
 C          9.482261   -1.746003   -0.225857
 C          8.760737   -2.996503   -0.382001
 C          8.644058   -0.581221   -0.087571
 N          9.326981   -4.189453   -0.540046
 C          7.300229   -3.043842   -0.384333
 C          7.262400   -0.632410   -0.033658
 O          9.267381    0.636006    0.052780
 S          8.105172   -5.313492   -0.684533
 N          6.812729   -4.270314   -0.544196
 C          6.499179   -1.842964   -0.218316
 O          6.563096    0.536447    0.151732
 C          9.143050    1.528806   -1.073423
 C          5.081107   -1.861272   -0.246937
 C          6.637808    1.097966    1.478495
 H          9.751094    2.401240   -0.829044
 H          9.529355    1.053500   -1.981177
 H          8.100638    1.822695   -1.215237
 C          4.234561   -2.986840   -0.376140
 S          4.073736   -0.399520   -0.154345
 H          7.661482    1.402495    1.707655
 H          5.978546    1.967389    1.470455
 H          6.283094    0.373713    2.219323
 C          2.875327   -2.693614   -0.392882
 H          4.636792   -3.985681   -0.453125
 C          2.582230   -1.329095   -0.281523
 H          2.112724   -3.453499   -0.480782
 C          1.301512   -0.662965   -0.259698
 C          0.063145   -1.335866   -0.385202
 C          1.191505    0.741058   -0.110098
 C         -1.157907   -0.698007   -0.366707
 F          0.047153   -2.680368   -0.538711
 C         -0.030163    1.376536   -0.091068
 H          2.075849    1.358791   -0.001563
 C         -1.265696    0.703091   -0.216269
 H         -2.042736   -1.314205   -0.481400
 F         -0.017722    2.721410    0.064457
 C         -2.552656    1.377247   -0.191094
 C         -2.842598    2.732896   -0.157815
 S         -4.042466    0.445268   -0.198368
 C         -4.221181    3.019550   -0.149436
 H         -2.084492    3.502305   -0.147037
 C         -5.041751    1.899134   -0.166630
 H         -4.618425    4.023662   -0.137231
 C         -6.496977    1.855917   -0.184905
 C         -7.305367    3.049075   -0.315175
 C         -7.233617    0.679960   -0.073309
 N         -6.831176    4.291055   -0.425945
 C         -8.764477    2.996305   -0.313082
 C         -8.666287    0.622765   -0.142583
 O         -6.565613   -0.510073    0.049688
 S         -8.118022    5.306835   -0.513294
 N         -9.327550    4.201480   -0.415602
 C         -9.484952    1.744319   -0.229947
 O         -9.245945   -0.616666   -0.057820
 C         -6.636028   -1.136911    1.349663
 C        -10.940947    1.680404   -0.244642
 C         -9.136527   -1.437123   -1.241783
 H         -6.019708   -2.033884    1.278061
 H         -6.227821   -0.468577    2.114684
 H         -7.667012   -1.405446    1.589026
 C        -11.838446    2.715098   -0.462174
 S        -11.834490    0.189369    0.064129
 H         -8.089586   -1.666001   -1.452503
 H         -9.684778   -2.353056   -1.018038
 H         -9.596304   -0.931327   -2.096993
 C        -13.195690    2.335288   -0.387212
 H        -11.515245    3.725864   -0.662709
 C        -13.383024    0.997348   -0.094451
 H        -14.010107    3.031715   -0.529287
 C        -14.625510    0.250576    0.082926
 C        -15.876757    0.727302   -0.350402
 C        -14.652579   -1.017463    0.697240
 C        -17.055556    0.021388   -0.199413
 F        -15.954991    1.929686   -0.968015
 C        -15.831629   -1.722282    0.848680
 H        -13.745131   -1.464303    1.088439
 C        -17.082054   -1.245069    0.415468
 H        -17.963417    0.468491   -0.589753
 F        -15.755418   -2.925778    1.465429
 C        -18.325332   -1.993268    0.596441
 C        -18.518069   -3.331609    0.874235
 S        -19.881948   -1.183011    0.456354
 C        -19.888919   -3.705387    0.960172
 H        -17.701559   -4.029184    0.998266
 C        -20.742634   -2.655933    0.757087
 H        -20.223245   -4.716715    1.164252
 H        -21.824326   -2.653732    0.769771
 H         21.819422    2.627944    0.569998
       112
S1: Total Energy = -6533.71457863
 C         20.748446    2.661789    0.093535
 C         19.910807    3.707632    0.372369
 S         19.870759    1.189664   -0.154234
 C         18.539240    3.331925    0.390211
 H         20.258546    4.717385    0.561067
 C         18.327599    1.990717    0.130773
 H         17.735744    4.023153    0.601378
 C         17.081564    1.233388    0.078398
 C         15.812640    1.842100    0.010637
 C         17.061940   -0.176094    0.082131
 C         14.629505    1.135073   -0.050741
 C         15.879188   -0.885136    0.018921
 H         17.982938   -0.744645    0.151995
 C         14.607104   -0.277708   -0.049226
 H         13.709359    1.705065   -0.115451
 C         13.363930   -1.026685   -0.105111
 C         13.158755   -2.391937   -0.266301
 S         11.820462   -0.197731    0.026086
 C         11.806554   -2.765298   -0.290370
 H         13.965134   -3.102562   -0.376323
 C         10.909013   -1.704882   -0.148363
 H         11.470132   -3.784625   -0.407216
 F         15.723582    3.193382   -0.011013
 F         15.974293   -2.235213    0.041178
 C          9.467203   -1.763537   -0.107505
 C          8.744019   -3.016478   -0.123740
 C          8.648853   -0.617805   -0.049341
 N          9.304911   -4.226778   -0.188047
 C          7.285341   -3.062618   -0.088139
 C          7.240310   -0.662205    0.052030
 O          9.252213    0.616547   -0.036703
 S          8.084444   -5.339413   -0.206425
 N          6.798447   -4.303498   -0.130853
 C          6.488373   -1.855577    0.002903
 O          6.563825    0.528196    0.145718
 C          9.108969    1.386572   -1.248951
 C          5.051664   -1.881910    0.037914
 C          6.684643    1.219047    1.408268
 H          9.693822    2.294522   -1.094599
 H          9.510236    0.830360   -2.102541
 H          8.059973    1.638534   -1.420361
 C          4.213927   -3.009194    0.056243
 S          4.055154   -0.420788    0.027421
 H          7.719317    1.522472    1.580425
 H          6.042104    2.096958    1.327241
 H          6.334717    0.579676    2.225376
 C          2.850681   -2.720614    0.066263
 H          4.614653   -4.011719    0.060066
 C          2.556925   -1.351048    0.053778
 H          2.089101   -3.486152    0.085746
 C          1.286190   -0.686375    0.061719
 C          0.038396   -1.367130    0.052471
 C          1.177532    0.730815    0.077557
 C         -1.177875   -0.732142    0.057713
 F          0.024486   -2.719376    0.036782
 C         -0.038741    1.365791    0.084235
 H          2.064747    1.353722    0.085956
 C         -1.286550    0.685038    0.074674
 H         -2.065085   -1.355049    0.049478
 F         -0.024849    2.718036    0.100154
 C         -2.557288    1.349678    0.079319
 C         -2.851217    2.718591    0.122749
 S         -4.055386    0.420179    0.028322
 C         -4.214447    3.007266    0.116626
 H         -2.089745    3.483516    0.161345
 C         -5.052081    1.880646    0.070636
 H         -4.615329    4.009393    0.142790
 C         -6.488663    1.855088    0.031930
 C         -7.285624    3.063886   -0.031392
 C         -7.240493    0.660698    0.049925
 N         -6.798824    4.305516   -0.041719
 C         -8.744193    3.018388   -0.072212
 C         -8.648544    0.618450   -0.057135
 O         -6.563989   -0.531546    0.117348
 S         -8.084888    5.342889   -0.095065
 N         -9.305209    4.229841   -0.107881
 C         -9.467101    1.765249   -0.088541
 O         -9.251753   -0.615822   -0.078279
 C         -6.688339   -1.251208    1.363299
 C        -10.908722    1.707218   -0.133778
 C         -9.101444   -1.356098   -1.308228
 H         -6.044781   -2.126542    1.264429
 H         -6.341735   -0.630362    2.195989
 H         -7.723345   -1.559325    1.525000
 C        -11.806378    2.770892   -0.248466
 S        -11.819976    0.194685   -0.013235
 H         -8.051714   -1.605626   -1.478559
 H         -9.688999   -2.266373   -1.180255
 H         -9.495955   -0.778322   -2.150560
 C        -13.158275    2.395985   -0.246030
 H        -11.470178    3.793911   -0.327550
 C        -13.363824    1.027023   -0.119203
 H        -13.964495    3.110587   -0.326670
 C        -14.607042    0.277888   -0.067592
 C        -15.875592    0.857565   -0.284083
 C        -14.633249   -1.109272    0.200548
 C        -17.057696    0.145714   -0.245771
 F        -15.967802    2.179131   -0.562267
 C        -15.815814   -1.818706    0.240574
 H        -13.716986   -1.654748    0.397285
 C        -17.081026   -1.237844    0.023132
 H        -17.974826    0.688587   -0.447162
 F        -15.730145   -3.141576    0.518140
 C        -18.326832   -1.995297    0.077923
 C        -18.534003   -3.362138    0.078844
 S        -19.876307   -1.159401    0.147973
 C        -19.906568   -3.731837    0.123305
 H        -17.726179   -4.078654    0.034866
 C        -20.749813   -2.654580    0.163329
 H        -20.250932   -4.760207    0.124336
 H        -21.830742   -2.645212    0.205069
 H         21.827292    2.664359    0.013998
