       112
S0: Total Energy = -7129.11752130
 C         20.993258    2.413439    0.893843
 C         20.155062    3.462878    1.156564
 S         20.121684    0.970527    0.516894
 C         18.782926    3.113178    1.045637
 H         20.499724    4.456052    1.422241
 C         18.570089    1.789422    0.701766
 H         17.980532    3.814384    1.220830
 C         17.296345    1.103631    0.487555
 C         16.062226    1.778158    0.428772
 C         17.179723   -0.288041    0.322141
 C         14.854199    1.127445    0.229110
 C         15.972291   -0.939465    0.122128
 C         14.737230   -0.264820    0.061970
 C         13.466017   -0.952014   -0.153896
 C         13.266097   -2.268579   -0.535826
 S         11.917149   -0.150389    0.070017
 C         11.908847   -2.631712   -0.640240
 H         14.070503   -2.957975   -0.745759
 C         11.020822   -1.609411   -0.341340
 H         11.581013   -3.620828   -0.923255
 F         16.004468    3.117505    0.555845
 F         16.031089   -2.278381   -0.002807
 C          9.562584   -1.668146   -0.331945
 C          8.836529   -2.906201   -0.513548
 C          8.750078   -0.553752   -0.155929
 N          9.393542   -4.102967   -0.707987
 C          7.377060   -2.950822   -0.523688
 C          7.315115   -0.609206   -0.097474
 O          9.335809    0.669588    0.035236
 S          8.178442   -5.190523   -0.894155
 N          6.896722   -4.178105   -0.731833
 C          6.574513   -1.767601   -0.303417
 O          6.653761    0.571233    0.116753
 C          9.227519    1.597533   -1.067184
 C          5.115588   -1.803824   -0.290512
 C          6.710613    1.084571    1.466095
 H          9.786838    2.482789   -0.762540
 H          9.677638    1.168737   -1.968332
 H          8.181868    1.854444   -1.248905
 C          4.294250   -2.919812   -0.348314
 S          4.128925   -0.345913   -0.247699
 H          7.740508    1.321126    1.741742
 H          6.103338    1.990429    1.462422
 H          6.285344    0.357637    2.165656
 C          2.916685   -2.625425   -0.345211
 H          4.684377   -3.925417   -0.398719
 C          2.633136   -1.269869   -0.297046
 H          2.157927   -3.392834   -0.385054
 C          1.321262   -0.629221   -0.262571
 C          0.122009   -1.343818   -0.071957
 C          1.124371    0.755684   -0.419108
 C         -1.123775   -0.736842   -0.045561
 F          0.138400   -2.677702    0.109885
 C         -0.121404    1.362683   -0.392618
 C         -1.321070    0.648262   -0.201851
 F         -0.136795    2.696786   -0.572875
 C         -2.633014    1.288934   -0.169914
 C         -2.917407    2.645172   -0.145467
 S         -4.128973    0.363442   -0.167239
 C         -4.294890    2.938860   -0.132167
 H         -2.159360    3.413988   -0.129468
 C         -5.116175    1.821364   -0.146057
 H         -4.684970    3.945619   -0.117670
 C         -6.575032    1.786116   -0.161294
 C         -7.376930    2.981685   -0.304863
 C         -7.316531    0.616800   -0.034294
 N         -6.895832    4.219527   -0.433694
 C         -8.836451    2.937753   -0.296874
 C         -8.751520    0.566977   -0.096020
 O         -6.655829   -0.575746    0.097992
 S         -8.176760    5.241291   -0.529830
 N         -9.392683    4.144966   -0.413348
 C         -9.563284    1.691190   -0.194820
 O         -9.337524   -0.666818    0.009514
 C         -6.718418   -1.186889    1.405929
 C        -11.021606    1.633216   -0.206102
 C         -9.237346   -1.508689   -1.160400
 H         -6.102672   -2.084648    1.340974
 H         -6.304858   -0.509550    2.160082
 H         -7.748146   -1.451448    1.655150
 C        -11.910051    2.673327   -0.433308
 S        -11.916955    0.156592    0.139251
 H         -8.192759   -1.748644   -1.370044
 H         -9.791952   -2.416091   -0.918745
 H         -9.696007   -1.014068   -2.022757
 C        -13.267179    2.304429   -0.348328
 H        -11.582663    3.679487   -0.648761
 C        -13.466444    0.968504   -0.040419
 H        -14.071872    3.007991   -0.502548
 C        -14.737078    0.261831    0.104901
 C        -15.974747    0.825263   -0.262326
 C        -14.850783   -1.039690    0.627506
 C        -17.181293    0.157975   -0.116556
 F        -16.037392    2.059945   -0.794800
 C        -16.057916   -1.706174    0.773313
 C        -17.294657   -1.142192    0.407340
 F        -15.996369   -2.942377    1.303681
 C        -18.567641   -1.846035    0.558203
 C        -18.778856   -3.170932    0.898824
 S        -20.120472   -1.039935    0.331631
 C        -20.150580   -3.530616    0.977923
 H        -17.975607   -3.869311    1.081112
 C        -20.990156   -2.485107    0.704161
 H        -20.493945   -4.528316    1.227841
 H        -22.072090   -2.478116    0.689322
 H         22.075098    2.397445    0.908437
 F         18.282910   -1.062102    0.356912
 F         13.752778    1.903330    0.195008
 F          2.183442    1.566532   -0.611721
 F         -2.182413   -1.548376    0.147751
 F        -13.746744   -1.703874    1.022397
 F        -18.287117    0.820650   -0.510886
       112
T1: Total Energy = -7129.07090706
 C         20.986121    2.520152   -0.009670
 C         20.152028    3.599038    0.105415
 S         20.109859    1.035209   -0.111891
 C         18.778892    3.236421    0.103555
 H         20.500303    4.622409    0.190043
 C         18.561001    1.873972   -0.008839
 H         17.979710    3.957582    0.188708
 C         17.284374    1.162541   -0.058198
 C         16.042774    1.818953   -0.155529
 C         17.171570   -0.238605   -0.011435
 C         14.832359    1.144092   -0.198338
 C         15.961681   -0.914255   -0.054249
 C         14.719219   -0.257817   -0.152757
 C         13.444857   -0.970584   -0.202265
 C         13.237456   -2.330990   -0.364869
 S         11.901899   -0.143715   -0.037886
 C         11.879840   -2.705890   -0.351080
 H         14.036623   -3.044744   -0.499667
 C         10.998319   -1.649148   -0.176692
 H         11.546804   -3.727087   -0.461089
 F         15.978689    3.162298   -0.223081
 F         16.026363   -2.256821    0.015903
 C          9.543230   -1.705850   -0.092999
 C          8.817811   -2.957038   -0.050806
 C          8.731652   -0.576692   -0.052534
 N          9.373694   -4.169401   -0.085481
 C          7.359707   -3.002454    0.011605
 C          7.302650   -0.621653    0.080877
 O          9.317577    0.661197   -0.081650
 S          8.159131   -5.272804   -0.048991
 N          6.879112   -4.246916    0.014713
 C          6.559941   -1.798756    0.086346
 O          6.642356    0.576232    0.144491
 C          9.153501    1.403522   -1.310619
 C          5.105287   -1.830747    0.167092
 C          6.769314    1.299636    1.389351
 H          9.723446    2.323619   -1.177025
 H          9.561557    0.835529   -2.152857
 H          8.099360    1.632555   -1.480641
 C          4.286872   -2.946220    0.292575
 S          4.114686   -0.377628    0.083350
 H          7.808412    1.589271    1.558535
 H          6.142760    2.185413    1.279614
 H          6.402803    0.688587    2.220499
 C          2.912041   -2.655232    0.318476
 H          4.680923   -3.949291    0.359169
 C          2.620198   -1.300918    0.212223
 H          2.158612   -3.421836    0.418543
 C          1.311460   -0.666689    0.200014
 C          0.099280   -1.392320    0.197797
 C          1.117986    0.731148    0.187204
 C         -1.144512   -0.788480    0.190724
 F          0.105889   -2.738369    0.199256
 C         -0.124746    1.337220    0.178531
 C         -1.340297    0.611947    0.182575
 F         -0.127865    2.682910    0.165436
 C         -2.642925    1.239825    0.177927
 C         -2.932724    2.612127    0.212433
 S         -4.143002    0.310753    0.121028
 C         -4.288716    2.909620    0.194546
 H         -2.171160    3.375901    0.253649
 C         -5.138382    1.780562    0.146959
 H         -4.683718    3.913912    0.216110
 C         -6.556943    1.772253    0.103905
 C         -7.347010    2.991038    0.049376
 C         -7.331250    0.553777    0.101161
 N         -6.850218    4.223711    0.062776
 C         -8.806336    2.955742   -0.019219
 C         -8.708843    0.520896   -0.022281
 O         -6.642432   -0.632310    0.169262
 S         -8.131611    5.286824   -0.005548
 N         -9.361098    4.163461   -0.054221
 C         -9.537846    1.701142   -0.051122
 O         -9.341615   -0.697486   -0.065469
 C         -6.787020   -1.367710    1.402578
 C        -10.957605    1.643265   -0.097877
 C         -9.165309   -1.447501   -1.285655
 H         -6.119392   -2.226041    1.314929
 H         -6.481468   -0.748564    2.252496
 H         -7.819035   -1.701760    1.530009
 C        -11.856926    2.728179   -0.177861
 S        -11.882998    0.130437   -0.034157
 H         -8.119236   -1.736383   -1.409285
 H         -9.792927   -2.333717   -1.181413
 H         -9.499836   -0.858340   -2.145907
 C        -13.199745    2.366383   -0.190488
 H        -11.509909    3.749171   -0.225665
 C        -13.423559    0.985864   -0.118576
 H        -13.995870    3.092508   -0.254021
 C        -14.697904    0.294441   -0.107449
 C        -15.944575    0.960683   -0.131129
 C        -14.825676   -1.111610   -0.071747
 C        -17.158032    0.294819   -0.122226
 F        -16.006584    2.304380   -0.161814
 C        -16.040722   -1.774623   -0.062432
 C        -17.282959   -1.107891   -0.087884
 F        -15.983522   -3.119294   -0.028623
 C        -18.564574   -1.805207   -0.079249
 C        -18.799325   -3.171067   -0.043532
 S        -20.106065   -0.944332   -0.116942
 C        -20.175470   -3.516497   -0.046370
 H        -18.009278   -3.906150   -0.015840
 C        -20.997750   -2.422331   -0.084258
 H        -20.535482   -4.538941   -0.021162
 H        -22.079451   -2.395399   -0.094647
 H         22.067865    2.506376   -0.032012
 F         18.281533   -0.997794    0.083248
 F         13.724044    1.905002   -0.292373
 F          2.185520    1.553516    0.181728
 F         -2.210385   -1.611880    0.189418
 F        -13.722665   -1.883935   -0.044941
 F        -18.264659    1.063935   -0.147508
       112
S1: Total Energy = -7129.05174718
 C         20.985549    2.474154    0.077142
 C         20.155985    3.559919    0.165177
 S         20.103157    0.992918   -0.017330
 C         18.782051    3.205644    0.155010
 H         20.509322    4.582619    0.235536
 C         18.555998    1.841168    0.059890
 H         17.987133    3.933346    0.217608
 C         17.278957    1.136347    0.019005
 C         16.032543    1.794922    0.035261
 C         17.162858   -0.266046   -0.040125
 C         14.821728    1.124451   -0.003693
 C         15.953195   -0.938504   -0.079042
 C         14.703414   -0.280357   -0.064446
 C         13.431533   -0.981741   -0.107699
 C         13.215621   -2.353097   -0.228906
 S         11.886998   -0.141280   -0.003686
 C         11.864799   -2.720110   -0.235629
 H         14.013361   -3.075249   -0.315208
 C         10.974564   -1.649163   -0.122623
 H         11.525532   -3.741640   -0.318558
 F         15.966288    3.138893    0.087020
 F         16.022991   -2.281685   -0.128457
 C          9.532360   -1.704090   -0.079865
 C          8.804418   -2.954713   -0.067692
 C          8.717723   -0.554308   -0.047784
 N          9.360170   -4.168164   -0.103852
 C          7.345350   -2.994802   -0.032335
 C          7.308973   -0.591323    0.055404
 O          9.326630    0.675767   -0.062857
 S          8.136344   -5.276190   -0.098392
 N          6.854821   -4.234425   -0.047689
 C          6.552062   -1.782871    0.032069
 O          6.636402    0.601574    0.123512
 C          9.178693    1.428795   -1.286011
 C          5.115445   -1.800854    0.068850
 C          6.762741    1.325595    1.367453
 H          9.778888    2.329787   -1.152692
 H          9.561644    0.852949   -2.134900
 H          8.131274    1.692402   -1.448514
 C          4.277054   -2.927945    0.107564
 S          4.127613   -0.336893    0.040220
 H          7.797129    1.637799    1.524616
 H          6.114724    2.197287    1.267724
 H          6.421346    0.705253    2.202570
 C          2.917418   -2.636400    0.117165
 H          4.673243   -3.931975    0.126639
 C          2.622891   -1.263721    0.084211
 H          2.158513   -3.403042    0.150846
 C          1.329601   -0.640976    0.082136
 C          0.107613   -1.367491    0.081196
 C          1.130179    0.765020    0.079450
 C         -1.130260   -0.764722    0.080486
 F          0.115277   -2.713205    0.079687
 C         -0.107698    1.367790    0.079028
 C         -1.329683    0.641275    0.080949
 F         -0.115374    2.713499    0.075370
 C         -2.622987    1.264005    0.081793
 C         -2.917558    2.636720    0.112713
 S         -4.127662    0.337074    0.038666
 C         -4.277205    2.928212    0.102217
 H         -2.158683    3.403430    0.145571
 C         -5.115544    1.801044    0.064795
 H         -4.673429    3.932258    0.119722
 C         -6.552147    1.782946    0.027362
 C         -7.345461    2.994735   -0.039342
 C         -7.309020    0.591416    0.052172
 N         -6.854988    4.234355   -0.056334
 C         -8.804510    2.954527   -0.075435
 C         -8.717728    0.554180   -0.051712
 O         -6.636436   -0.601336    0.122477
 S         -8.136525    5.275969   -0.109377
 N         -9.360293    4.167891   -0.113784
 C         -9.532395    1.703857   -0.086095
 O         -9.326567   -0.675949   -0.065168
 C         -6.763497   -1.323583    1.367382
 C        -10.974578    1.648795   -0.129664
 C         -9.177975   -1.430883   -1.287067
 H         -6.115444   -2.195428    1.269247
 H         -6.422553   -0.702060    2.201801
 H         -7.797979   -1.635540    1.524404
 C        -11.864791    2.719480   -0.245255
 S        -11.886994    0.141057   -0.008761
 H         -8.130470   -1.694739   -1.448605
 H         -9.778239   -2.331668   -1.152662
 H         -9.560478   -0.856358   -2.137050
 C        -13.215607    2.352388   -0.238746
 H        -11.525515    3.740861   -0.329989
 C        -13.431467    0.981248   -0.115235
 H        -14.013381    3.074259   -0.327199
 C        -14.703350    0.279881   -0.071528
 C        -15.953003    0.938323   -0.081160
 C        -14.821727   -1.125049   -0.014235
 C        -17.162729    0.265888   -0.043759
 F        -16.022551    2.281680   -0.125781
 C        -16.032582   -1.795439    0.024902
 C        -17.278939   -1.136713    0.010184
 F        -15.966390   -3.139326    0.078799
 C        -18.556038   -1.841637    0.047401
 C        -18.782818   -3.209213    0.063617
 S        -20.102230   -0.988877    0.082735
 C        -20.156535   -3.562234    0.103431
 H        -17.988606   -3.940152    0.045667
 C        -20.985196   -2.472332    0.119016
 H        -20.510373   -4.587055    0.119463
 H        -22.066697   -2.451315    0.147701
 H         22.067388    2.454854    0.064334
 F         18.274410   -1.028649   -0.060308
 F         13.712968    1.889780    0.017636
 F          2.199234    1.584583    0.077017
 F         -2.199310   -1.584295    0.079214
 F        -13.712999   -1.890457    0.005817
 F        -18.274186    1.028754   -0.058396
