        98
S0: Total Energy = -5874.85405916
 C          9.808050    0.441102    0.008208
 C          8.696820    1.275784    0.073425
 C          9.493318   -0.967942   -0.058270
 C          7.364316    0.818627    0.076656
 H          8.843800    2.350639    0.124297
 C          8.110712   -1.442245   -0.055464
 N         10.384544   -1.961052   -0.126470
 C          6.998606   -0.522240    0.012940
 H          6.588928    1.577049    0.133309
 N          8.016393   -2.773324   -0.122426
 S          9.544830   -3.370794   -0.182814
 C         11.168503    0.944081    0.007514
 C         12.372127    0.254067   -0.085988
 S         11.466881    2.697508    0.137924
 C         13.500121    1.098458   -0.056538
 H         12.400994   -0.823614   -0.172114
 C         13.172727    2.440719    0.060302
 C         14.380546    3.221478    0.081452
 C         15.470264    2.371460   -0.022122
 S         14.853628    4.884150    0.196596
 C         16.709274    3.064835   -0.008502
 C         16.539358    4.423339    0.104302
 H         17.686382    2.598493   -0.077728
 H         17.299253    5.192442    0.139575
 C         15.016569    0.915457   -0.122400
 C         15.538650    0.075741    1.064951
 H         15.143505   -0.945182    1.015260
 H         16.632800    0.017111    1.041021
 H         15.238084    0.515007    2.021245
 C         15.451940    0.276698   -1.460354
 H         16.544763    0.219895   -1.520664
 H         15.054587   -0.740969   -1.545871
 H         15.089831    0.860305   -2.312466
 C          5.615592   -0.958744    0.012515
 S          4.303612    0.248089    0.045036
 C          5.090891   -2.247497   -0.010921
 C          3.114615   -1.006210    0.028157
 C          3.683618   -2.273449   -0.001301
 H          5.731755   -3.118283   -0.034490
 C          1.688436   -1.131486    0.032448
 C          2.601955   -3.353009   -0.017520
 S          0.300047   -0.103003    0.058664
 C          1.348364   -2.478873    0.007019
 C          2.686831   -4.259416    1.231110
 C          2.673369   -4.206555   -1.303683
 C         -0.782665   -1.519460    0.033050
 C         -0.041602   -2.697635    0.008430
 H          1.861240   -4.979896    1.237914
 H          3.627699   -4.821128    1.232412
 H          2.636712   -3.669464    2.151552
 H          3.613752   -4.767995   -1.338010
 H          1.847187   -4.925800   -1.332132
 H          2.614380   -3.578680   -2.198150
 C         -2.219686   -1.330413    0.035381
 H         -0.522099   -3.666319   -0.008476
 C         -2.813317   -0.071675    0.015363
 C         -3.155060   -2.432129    0.057995
 C         -4.204771    0.145317    0.015482
 H         -2.181780    0.811627   -0.004876
 C         -4.599078   -2.206637    0.057662
 N         -2.830102   -3.727723    0.082168
 C         -5.153702   -0.872442    0.034165
 H         -4.537050    1.179192   -0.001888
 N         -5.303461   -3.341752    0.080776
 S         -4.230601   -4.584577    0.101825
 C         -6.580665   -0.614230    0.028021
 S         -7.179863    1.064147   -0.024331
 C         -7.645063   -1.510150    0.056053
 C         -8.815691    0.507624   -0.006826
 C         -8.902748   -0.877973    0.036652
 H         -7.483318   -2.578890    0.088669
 C        -10.137357    1.060796   -0.025823
 C        -10.362871   -1.329478    0.049846
 S        -10.887370    2.616458   -0.075686
 C        -11.064442    0.027392    0.006248
 C        -10.706035   -2.103787    1.342342
 C        -10.703326   -2.184410   -1.191595
 C        -12.503225    1.866979   -0.054544
 C        -12.397616    0.481945   -0.009089
 H        -11.773050   -2.351920    1.367106
 H        -10.138453   -3.039899    1.389513
 H        -10.469298   -1.512068    2.232057
 H        -10.134649   -3.120982   -1.178601
 H        -11.769999   -2.435016   -1.202354
 H        -10.465706   -1.649921   -2.116597
 C        -13.693632    2.703073   -0.086242
 H        -13.274041   -0.151590    0.011497
 C        -13.630257    4.088004   -0.170825
 C        -15.030328    2.147249   -0.031008
 C        -14.775508    4.930711   -0.201518
 H        -12.658906    4.571462   -0.219192
 C        -16.196282    3.019821   -0.063948
 N        -15.351067    0.852092    0.052978
 C        -16.052318    4.431708   -0.150624
 H        -14.617643    6.003208   -0.268733
 N        -17.361235    2.361487   -0.004679
 S        -16.993315    0.763026    0.085857
 H        -16.930696    5.066723   -0.174147
        98
T1: Total Energy = -5874.82267033
 C         -9.763129    0.437220   -0.002717
 C         -8.644714    1.286213   -0.038772
 C         -9.448247   -0.973864    0.026567
 C         -7.324496    0.840129   -0.045872
 H         -8.801407    2.360641   -0.061104
 C         -8.064992   -1.446717    0.018109
 N        -10.339486   -1.967072    0.061852
 C         -6.952095   -0.518159   -0.018110
 H         -6.547153    1.597784   -0.074423
 N         -7.966188   -2.775417    0.047343
 S         -9.498739   -3.384450    0.082803
 C        -11.113063    0.937233    0.004064
 C        -12.323106    0.241597    0.058220
 S        -11.414414    2.697615   -0.061757
 C        -13.446942    1.083418    0.048461
 H        -12.349059   -0.838566    0.102805
 C        -13.120120    2.433928   -0.013823
 C        -14.326335    3.210473   -0.019414
 C        -15.417692    2.354918    0.039610
 S        -14.800871    4.876274   -0.078330
 C        -16.656188    3.046723    0.036993
 C        -16.486178    4.409287   -0.023168
 H        -17.633573    2.577730    0.077005
 H        -17.247188    5.177969   -0.038863
 C        -14.963788    0.896724    0.091054
 C        -15.472313    0.100254   -1.131380
 H        -15.075748   -0.921106   -1.114707
 H        -16.566485    0.039332   -1.119751
 H        -15.163395    0.574339   -2.068152
 C        -15.411975    0.209044    1.400302
 H        -16.505226    0.148575    1.446302
 H        -15.013560   -0.810360    1.452498
 H        -15.060153    0.761538    2.277065
 C         -5.588720   -0.937730   -0.023400
 S         -4.273047    0.278762   -0.053459
 C         -5.050710   -2.241928   -0.006399
 C         -3.079405   -0.979238   -0.041756
 C         -3.664093   -2.265803   -0.016998
 H         -5.695527   -3.109794    0.013383
 C         -1.684023   -1.099359   -0.047008
 C         -2.583629   -3.345899   -0.006190
 S         -0.291785   -0.065305   -0.067421
 C         -1.330442   -2.471148   -0.026989
 C         -2.667925   -4.245793   -1.259454
 C         -2.653242   -4.204900    1.276318
 C          0.797445   -1.494984   -0.048138
 C          0.033503   -2.691437   -0.028448
 H         -1.841213   -4.964551   -1.268724
 H         -3.608594   -4.807407   -1.261986
 H         -2.618588   -3.652044   -2.177392
 H         -3.593311   -4.766633    1.307359
 H         -1.825778   -4.922439    1.299683
 H         -2.594329   -3.581765    2.173992
 C          2.199664   -1.324776   -0.050472
 H          0.521316   -3.656267   -0.014998
 C          2.805048   -0.033144   -0.063186
 C          3.132845   -2.436776   -0.037945
 C          4.166436    0.175100   -0.060122
 H          2.163637    0.842890   -0.074327
 C          4.577329   -2.211747   -0.035660
 N          2.800374   -3.725255   -0.027720
 C          5.129627   -0.872484   -0.044748
 H          4.515239    1.203433   -0.069357
 N          5.285789   -3.340219   -0.023725
 S          4.209646   -4.602504   -0.016009
 C          6.528131   -0.612083   -0.036610
 S          7.132937    1.076357   -0.039104
 C          7.610117   -1.514792   -0.023235
 C          8.768730    0.514652   -0.021463
 C          8.852708   -0.885356   -0.014837
 H          7.442375   -2.582930   -0.019603
 C         10.079371    1.059784   -0.009370
 C         10.313131   -1.336633    0.001869
 S         10.832125    2.617684   -0.005360
 C         11.013418    0.021023    0.004742
 C         10.667517   -2.155699   -1.259633
 C         10.640721   -2.147488    1.275802
 C         12.448007    1.864163    0.016233
 C         12.340643    0.473717    0.018844
 H         11.734611   -2.404334   -1.265388
 H         10.099487   -3.092355   -1.278436
 H         10.439226   -1.595852   -2.171847
 H         10.072233   -3.083977    1.288686
 H         11.707375   -2.396172    1.305651
 H         10.393339   -1.581770    2.179376
 C         13.636436    2.695612    0.029064
 H         13.217738   -0.159072    0.031106
 C         13.573798    4.085864    0.030138
 C         14.973303    2.135503    0.041891
 C         14.718740    4.926133    0.042606
 H         12.602532    4.571715    0.021444
 C         16.139713    3.008273    0.054641
 N         15.292961    0.838076    0.043376
 C         15.996106    4.422645    0.054887
 H         14.562993    6.001017    0.042438
 N         17.304530    2.347282    0.065442
 S         16.936515    0.745637    0.059836
 H         16.874936    5.057382    0.064543
        98
S1: Total Energy = -5874.80420542
 C         -9.769204    0.436791   -0.005972
 C         -8.652460    1.287578   -0.058002
 C         -9.456603   -0.972840    0.037455
 C         -7.332202    0.840347   -0.066870
 H         -8.809857    2.361566   -0.091603
 C         -8.074736   -1.444866    0.026594
 N        -10.350249   -1.965977    0.088845
 C         -6.964651   -0.516612   -0.025424
 H         -6.553951    1.596560   -0.108292
 N         -7.972683   -2.774770    0.070008
 S         -9.506860   -3.383649    0.120770
 C        -11.118111    0.937131    0.003119
 C        -12.328769    0.241236    0.075186
 S        -11.419996    2.697410   -0.084310
 C        -13.451164    1.081807    0.062310
 H        -12.352499   -0.838290    0.134316
 C        -13.124641    2.433983   -0.020618
 C        -14.328698    3.208313   -0.028001
 C        -15.421504    2.352648    0.050519
 S        -14.803832    4.873757   -0.106217
 C        -16.658346    3.044255    0.047095
 C        -16.487879    4.406788   -0.032881
 H        -17.635774    2.576784    0.100257
 H        -17.249396    5.174916   -0.053669
 C        -14.967496    0.895534    0.118967
 C        -15.485386    0.082061   -1.088292
 H        -15.088973   -0.939031   -1.059866
 H        -16.579405    0.021942   -1.067282
 H        -15.183416    0.542699   -2.033956
 C        -15.405065    0.226648    1.441609
 H        -16.497828    0.166056    1.496637
 H        -15.005179   -0.791459    1.505143
 H        -15.047068    0.791948    2.307621
 C         -5.596919   -0.940418   -0.031613
 S         -4.282412    0.272861   -0.073587
 C         -5.063015   -2.240733   -0.006556
 C         -3.092119   -0.983306   -0.055712
 C         -3.670759   -2.264720   -0.020581
 H         -5.708185   -3.108057    0.021393
 C         -1.686252   -1.104721   -0.062411
 C         -2.588682   -3.342852   -0.004088
 S         -0.296598   -0.072847   -0.091214
 C         -1.337523   -2.466489   -0.033311
 C         -2.674182   -4.251908   -1.250858
 C         -2.655028   -4.192725    1.284863
 C          0.788688   -1.496039   -0.062669
 C          0.038359   -2.684935   -0.034585
 H         -1.846203   -4.969238   -1.256629
 H         -3.613659   -4.815476   -1.247289
 H         -2.627840   -3.664618   -2.173087
 H         -3.593681   -4.756476    1.321058
 H         -1.826018   -4.908319    1.312301
 H         -2.596329   -3.562934    2.177887
 C          2.209233   -1.316830   -0.065882
 H          0.527055   -3.649202   -0.014858
 C          2.803020   -0.037356   -0.080841
 C          3.136875   -2.425142   -0.050976
 C          4.175730    0.175683   -0.077499
 H          2.163464    0.840286   -0.093248
 C          4.578746   -2.201405   -0.048603
 N          2.801173   -3.718849   -0.038452
 C          5.128795   -0.864130   -0.059456
 H          4.519809    1.205550   -0.088241
 N          5.290174   -3.332991   -0.034407
 S          4.211141   -4.589561   -0.024825
 C          6.537602   -0.606163   -0.049188
 S          7.142615    1.078971   -0.048416
 C          7.612571   -1.509080   -0.034719
 C          8.777218    0.516890   -0.027799
 C          8.859667   -0.881648   -0.022820
 H          7.442553   -2.576945   -0.032430
 C         10.088180    1.061527   -0.010956
 C         10.318973   -1.335307   -0.002659
 S         10.842643    2.618563   -0.001749
 C         11.021372    0.021106    0.004535
 C         10.676407   -2.152558   -1.264592
 C         10.642068   -2.148657    1.270932
 C         12.457925    1.863098    0.024362
 C         12.348311    0.471503    0.023869
 H         11.743250   -2.402205   -1.267411
 H         10.107461   -3.088601   -1.286648
 H         10.451458   -1.590876   -2.176491
 H         10.072631   -3.084635    1.280435
 H         11.708364   -2.398386    1.303377
 H         10.392555   -1.584251    2.174728
 C         13.645781    2.691841    0.043629
 H         13.225164   -0.161563    0.037926
 C         13.583868    4.084513    0.052768
 C         14.981618    2.128996    0.055048
 C         14.728444    4.920838    0.071669
 H         12.612797    4.570910    0.046122
 C         16.149671    3.000766    0.074598
 N         15.298387    0.831145    0.049172
 C         16.006730    4.414026    0.082885
 H         14.575768    5.996237    0.077711
 N         17.314420    2.338144    0.083120
 S         16.944024    0.735324    0.067241
 H         16.886030    5.048147    0.097533
