       134
S0: Total Energy = -5308.18559330
 C        -11.821392   -0.290108    0.021795
 C        -11.015586   -1.446289   -0.084802
 C         -9.628807   -1.352346   -0.096834
 C        -11.881257   -2.702543   -0.176627
 H         -9.002030   -2.237163   -0.178427
 C         -5.327605    1.232178    0.042899
 C         -6.280539    2.238460    0.137761
 C         -7.604106    1.748578    0.122650
 C         -7.681346    0.374955    0.014201
 C         -9.057160   -0.076687   -0.000964
 C         -9.863786    1.089888    0.106142
 C        -11.246996    0.987491    0.118295
 S         -6.117227   -0.361118   -0.073348
 C         -8.997665    2.355458    0.195689
 H        -11.873101    1.873175    0.199683
 C        -13.226562   -0.698230    0.007673
 C        -13.286027   -2.104364   -0.107985
 C        -14.508312   -2.767891   -0.146874
 H        -14.561490   -3.850389   -0.236183
 C        -19.500153   -2.890657   -0.092184
 C        -19.271932   -1.541936    0.016555
 C        -17.882206   -1.237457    0.024054
 C        -17.082967   -2.354574   -0.078698
 C        -15.674761   -1.998512   -0.067545
 C        -15.620020   -0.582921    0.049052
 C        -14.397851    0.072110    0.087311
 S        -18.016445   -3.813907   -0.187746
 C        -17.031370    0.020736    0.116898
 H        -14.345415    1.154988    0.176354
 H         -5.999862    3.280078    0.213928
 H        -20.072418   -0.812875    0.086976
 C        -11.616861   -3.656060    1.010732
 H        -11.772514   -3.147141    1.967472
 H        -12.289452   -4.520457    0.968970
 H        -10.586708   -4.029575    0.984584
 C        -11.651490   -3.447885   -1.511066
 H        -11.833627   -2.789816   -2.366846
 H        -10.621402   -3.816851   -1.575403
 H        -12.323428   -4.309967   -1.592468
 C         -9.264669    3.307242   -0.991902
 H        -10.293521    3.683732   -0.961619
 H         -8.588337    4.168764   -0.951858
 H         -9.113960    2.796653   -1.948346
 C         -9.222358    3.099175    1.531520
 H         -8.545892    3.957921    1.610331
 H        -10.250792    3.472074    1.598040
 H         -9.040572    2.439374    2.385835
 C        -17.262478    0.765054    1.451243
 H        -16.595680    1.631150    1.532039
 H        -18.295011    1.127711    1.514691
 H        -17.076448    0.107788    2.306602
 C        -17.294463    0.971938   -1.072199
 H        -16.627713    1.840708   -1.028070
 H        -17.131884    0.462856   -2.027513
 H        -18.327388    1.338253   -1.049452
 H        -20.449529   -3.408644   -0.123018
 C         -3.878389    1.325847    0.031814
 C         -3.053066    0.207098    0.029615
 C         -3.174868    2.587847    0.018460
 C         -1.644373    0.264137    0.011655
 H         -3.501806   -0.781762    0.045400
 C         -1.714464    2.646851    0.001388
 N         -3.745376    3.796181    0.017324
 C         -0.911784    1.445547   -0.001177
 H         -1.117397   -0.685438    0.007025
 N         -1.243594    3.897407   -0.009921
 S         -2.537537    4.908043   -0.001529
 C          0.540545    1.468268   -0.013524
 C          1.409602    2.548976   -0.092752
 S          1.455165   -0.058319    0.078551
 C          2.768229    2.166425   -0.083995
 H          1.046363    3.565734   -0.153775
 C          2.955383    0.802018    0.003641
 C          4.108226    2.884580   -0.147540
 C          4.362861    0.462119    0.011276
 C          5.073357    1.691437   -0.078896
 C          4.299269    3.835063    1.055780
 C          4.270147    3.665836   -1.470883
 C          5.034789   -0.765008    0.087310
 C          6.459926    1.700238   -0.094972
 H          5.294016    4.294421    1.031563
 H          3.555203    4.639358    1.030278
 H          4.191956    3.298194    2.003648
 H          5.264731    4.122269   -1.531060
 H          4.141536    3.007628   -2.336006
 H          3.525883    4.467787   -1.535500
 C          6.424668   -0.747521    0.071851
 H          4.480870   -1.698107    0.156458
 C          7.134772    0.470996   -0.018772
 H          7.013397    2.633985   -0.164165
 C          7.388028   -1.931799    0.144345
 C          8.567473    0.177339   -0.013352
 C          8.740113   -1.222149    0.081951
 C          7.221994   -2.711391    1.468636
 C          7.198487   -2.887086   -1.055874
 C          9.672033    1.041482   -0.084938
 C         10.010804   -1.785024    0.108576
 H          7.353158   -2.052904    2.333352
 H          6.224695   -3.161959    1.528959
 H          7.960522   -3.518342    1.536883
 H          7.311687   -2.354707   -2.005768
 H          7.937621   -3.695855   -1.025885
 H          6.201400   -3.341578   -1.034202
 C         10.943219    0.487536   -0.059193
 H          9.531573    2.117495   -0.158705
 H         10.152108   -2.860691    0.181544
 C         11.111644   -0.921475    0.037834
 C         12.300283    1.204421   -0.123933
 C         12.540052   -1.162691    0.041065
 C         13.249045    0.017209   -0.048694
 C         12.466113    1.978559   -1.451076
 C         12.490938    2.160871    1.074659
 S         13.579407   -2.543689    0.127651
 C         14.649261   -0.167569   -0.049923
 H         11.731861    2.789259   -1.519790
 H         13.466273    2.422418   -1.513048
 H         12.329771    1.317815   -2.313071
 H         13.490859    2.609022    1.051928
 H         11.755972    2.973200    1.041213
 H         12.373750    1.630800    2.025186
 C         15.020518   -1.501505    0.039888
 H         15.384650    0.623066   -0.112897
 C         16.351986   -2.092206    0.067192
 C         16.557224   -3.461666    0.165494
 C         17.556044   -1.290428   -0.007062
 C         17.843823   -4.068347    0.193697
 H         15.697260   -4.122192    0.225447
 C         18.868579   -1.921731    0.022722
 N         17.621027    0.041470   -0.105997
 C         19.000005   -3.333884    0.124874
 H         17.895615   -5.150396    0.272736
 N         19.884633   -1.052423   -0.054055
 S         19.214936    0.444245   -0.155767
 H         19.984446   -3.787532    0.145763
       134
T1: Total Energy = -5308.14797189
 C        -11.760435   -0.294738   -0.000127
 C        -10.946116   -1.453272    0.049020
 C         -9.563790   -1.353042    0.078685
 C        -11.805919   -2.716684    0.059720
 H         -8.930843   -2.236139    0.115175
 C         -5.277275    1.254377    0.089198
 C         -6.256618    2.271758    0.046734
 C         -7.558651    1.776113    0.038286
 C         -7.633973    0.382913    0.074258
 C         -8.996619   -0.066535    0.058209
 C         -9.813835    1.102492    0.009732
 C        -11.193707    0.991848   -0.019035
 S         -6.069264   -0.358022    0.120669
 C         -8.956293    2.376435   -0.005444
 H        -11.825995    1.875777   -0.056508
 C        -13.159163   -0.709728   -0.026026
 C        -13.212378   -2.121681    0.007005
 C        -14.430851   -2.791627   -0.010259
 H        -14.479780   -3.877586    0.014789
 C        -19.417575   -2.935665   -0.149562
 C        -19.196896   -1.581316   -0.175165
 C        -17.809647   -1.269453   -0.142736
 C        -17.004881   -2.387006   -0.093104
 C        -15.600307   -2.023719   -0.061687
 C        -15.552189   -0.602184   -0.094447
 C        -14.334467    0.059431   -0.076846
 S        -17.930560   -3.855388   -0.085157
 C        -16.966037   -0.003225   -0.148295
 H        -14.286396    1.145752   -0.102174
 H         -5.969843    3.313935    0.022824
 H        -20.000920   -0.853989   -0.215407
 C        -11.589134   -3.533721    1.353856
 H        -11.784711   -2.924975    2.242494
 H        -12.258548   -4.401112    1.378363
 H        -10.558546   -3.902243    1.410457
 C        -11.521530   -3.601167   -1.175517
 H        -11.668027   -3.040849   -2.104543
 H        -10.489957   -3.970941   -1.156921
 H        -12.190055   -4.469462   -1.189811
 C         -9.178290    3.192769   -1.298483
 H        -10.208056    3.564333   -1.347713
 H         -8.504647    4.056520   -1.324927
 H         -8.990148    2.583203   -2.187936
 C         -9.230996    3.258111    1.233448
 H         -8.559015    4.123526    1.242808
 H        -10.262001    3.629409    1.220898
 H         -9.079709    2.695751    2.160258
 C        -17.253422    0.874903    1.090452
 H        -16.592253    1.748806    1.107135
 H        -18.288378    1.235580    1.072929
 H        -17.101772    0.311905    2.016855
 C        -17.181762    0.817023   -1.440044
 H        -16.519524    1.690084   -1.459113
 H        -16.978736    0.212559   -2.329756
 H        -18.215490    1.176996   -1.497514
 H        -20.364122   -3.459534   -0.164379
 C         -3.864920    1.361129    0.102372
 C         -3.024513    0.196138    0.144891
 C         -3.171212    2.631482    0.069539
 C         -1.657956    0.252105    0.147466
 H         -3.493943   -0.782295    0.175497
 C         -1.711680    2.691476    0.071597
 N         -3.755521    3.828160    0.033541
 C         -0.915891    1.482161    0.107374
 H         -1.110045   -0.684539    0.179679
 N         -1.227377    3.931884    0.037076
 S         -2.536224    4.973728    0.003947
 C          0.500507    1.491640    0.099572
 C          1.393459    2.585411    0.055548
 S          1.421629   -0.050307    0.142118
 C          2.731731    2.197908    0.054006
 H          1.023006    3.600666    0.025370
 C          2.920689    0.815832    0.097626
 C          4.075425    2.910812    0.012429
 C          4.315758    0.479580    0.089278
 C          5.034520    1.711717    0.036637
 C          4.271789    3.816786    1.248800
 C          4.235482    3.737417   -1.283124
 C          4.986540   -0.755791    0.120306
 C          6.418634    1.714847    0.012678
 H          5.268966    4.271171    1.238963
 H          3.531261    4.624347    1.251931
 H          4.162899    3.247447    2.177299
 H          5.232097    4.190664   -1.330035
 H          4.100738    3.111243   -2.170736
 H          3.494371    4.543808   -1.315525
 C          6.372687   -0.742100    0.096560
 H          4.428420   -1.687846    0.161165
 C          7.089024    0.479071    0.042391
 H          6.976359    2.647482   -0.028787
 C          7.333057   -1.930579    0.121082
 C          8.516679    0.181106    0.026504
 C          8.686126   -1.222431    0.072143
 C          7.175197   -2.753951    1.419630
 C          7.130857   -2.843462   -1.109735
 C          9.624145    1.045193   -0.025005
 C          9.954756   -1.788927    0.068567
 H          7.314475   -2.125502    2.305141
 H          6.177490   -3.204342    1.472089
 H          7.912598   -3.563940    1.454409
 H          7.238719   -2.279446   -2.041791
 H          7.867388   -3.655032   -1.112801
 H          6.132438   -3.295132   -1.095726
 C         10.892616    0.487410   -0.029495
 H          9.485986    2.123342   -0.060808
 H         10.093889   -2.866698    0.103090
 C         11.057566   -0.925803    0.017948
 C         12.251550    1.201505   -0.082621
 C         12.483709   -1.171333    0.000131
 C         13.196186    0.009163   -0.056458
 C         12.407985    2.019169   -1.384588
 C         12.457477    2.116194    1.145697
 S         13.518937   -2.557920    0.030548
 C         14.595269   -0.179867   -0.077104
 H         11.676518    2.834500   -1.418833
 H         13.409347    2.460924   -1.440763
 H         12.260961    1.388425   -2.267036
 H         13.459223    2.560379    1.128381
 H         11.726188    2.932463    1.146295
 H         12.346695    1.555094    2.079008
 C         14.962250   -1.517621   -0.035560
 H         15.333032    0.609810   -0.120696
 C         16.292097   -2.112676   -0.040421
 C         16.493555   -3.485224    0.012148
 C         17.497649   -1.312240   -0.101360
 C         17.778294   -4.096370    0.007841
 H         15.632089   -4.144796    0.059822
 C         18.808147   -1.948086   -0.105239
 N         17.566005    0.021931   -0.158723
 C         18.935928   -3.363170   -0.049420
 H         17.827442   -5.180501    0.051806
 N         19.826264   -1.079878   -0.165056
 S         19.160714    0.421172   -0.212381
 H         19.919081   -3.820068   -0.053204
       134
S1: Total Energy = -5308.12736710
 C        -11.773586   -0.288962    0.010127
 C        -10.965963   -1.454508   -0.039401
 C         -9.583637   -1.365176   -0.044557
 C        -11.835276   -2.710396   -0.083212
 H         -8.956730   -2.252449   -0.081782
 C         -5.282625    1.211203    0.015024
 C         -6.243294    2.230801    0.056077
 C         -7.556661    1.745057    0.051792
 C         -7.642010    0.356539    0.005107
 C         -9.006267   -0.082706   -0.000678
 C         -9.817190    1.094163    0.047859
 C        -11.195982    0.994647    0.054014
 S         -6.080323   -0.391387   -0.033101
 C         -8.947700    2.359125    0.087302
 H        -11.822183    1.882862    0.090786
 C        -13.170980   -0.690477    0.004294
 C        -13.237150   -2.104108   -0.049858
 C        -14.460259   -2.761668   -0.067429
 H        -14.519500   -3.846497   -0.109338
 C        -19.446049   -2.860763   -0.038697
 C        -19.215486   -1.507946    0.012187
 C        -17.826737   -1.207600    0.014828
 C        -17.029299   -2.332815   -0.033963
 C        -15.624495   -1.982401   -0.029462
 C        -15.563946   -0.559997    0.025388
 C        -14.341716    0.089840    0.042534
 S        -17.966946   -3.793137   -0.084490
 C        -16.973232    0.050817    0.058173
 H        -14.283773    1.175006    0.084424
 H         -5.944785    3.269601    0.086948
 H        -20.014572   -0.775014    0.045790
 C        -11.582687   -3.613498    1.145507
 H        -11.742345   -3.064310    2.078964
 H        -12.258576   -4.476102    1.135040
 H        -10.554131   -3.991746    1.141616
 C        -11.600141   -3.511666   -1.384062
 H        -11.774482   -2.889759   -2.267957
 H        -10.571231   -3.886484   -1.425909
 H        -12.274854   -4.373852   -1.432591
 C         -9.200621    3.258722   -1.143345
 H        -10.226801    3.643445   -1.135691
 H         -8.517497    4.115317   -1.136051
 H         -9.047520    2.705650   -2.075413
 C         -9.176155    3.161653    1.388152
 H         -8.492682    4.016780    1.433216
 H        -10.202054    3.544784    1.430099
 H         -9.005190    2.538779    2.271829
 C        -17.210154    0.852364    1.358044
 H        -16.541559    1.719375    1.404775
 H        -18.241952    1.219865    1.398720
 H        -17.031211    0.232481    2.242262
 C        -17.226199    0.950393   -1.172720
 H        -16.557219    1.818333   -1.161234
 H        -17.059511    0.400599   -2.104419
 H        -18.258035    1.320039   -1.171460
 H        -20.397295   -3.376131   -0.052545
 C         -3.848840    1.307572    0.008510
 C         -3.031985    0.153889   -0.004722
 C         -3.160615    2.573987    0.014008
 C         -1.647414    0.208167   -0.011636
 H         -3.499642   -0.826163   -0.007100
 C         -1.710539    2.631744    0.001578
 N         -3.756501    3.779272    0.027977
 C         -0.923846    1.422879   -0.008756
 H         -1.104285   -0.732073   -0.022332
 N         -1.212163    3.879752    0.003732
 S         -2.527377    4.915865    0.023031
 C          0.511821    1.439923   -0.013997
 C          1.389892    2.533245   -0.040921
 S          1.433274   -0.095551    0.017298
 C          2.736197    2.152822   -0.039515
 H          1.010853    3.545677   -0.060239
 C          2.931591    0.773693   -0.008660
 C          4.073933    2.875638   -0.063803
 C          4.324475    0.444453   -0.004873
 C          5.040729    1.683213   -0.039076
 C          4.252767    3.774736    1.180298
 C          4.240076    3.712009   -1.352558
 C          5.002146   -0.789376    0.026653
 C          6.422002    1.693570   -0.045443
 H          5.245164    4.239611    1.180776
 H          3.503756    4.574310    1.183249
 H          4.142550    3.197951    2.104011
 H          5.232908    4.174695   -1.386466
 H          4.119460    3.090471   -2.245431
 H          3.491802    4.511546   -1.386874
 C          6.386400   -0.768615    0.022775
 H          4.447651   -1.723961    0.054353
 C          7.099955    0.458398   -0.014402
 H          6.976097    2.628799   -0.072459
 C          7.352324   -1.951937    0.057096
 C          8.521974    0.170222   -0.010561
 C          8.701482   -1.236021    0.032290
 C          7.178888   -2.780898    1.350188
 C          7.174920   -2.860907   -1.180422
 C          9.626967    1.043120   -0.041749
 C          9.971240   -1.793148    0.047209
 H          7.301192   -2.155184    2.240090
 H          6.182738   -3.236125    1.385207
 H          7.919711   -3.587278    1.393055
 H          7.293889   -2.292725   -2.108550
 H          7.916118   -3.668128   -1.174730
 H          6.179045   -3.318070   -1.183299
 C         10.896451    0.494126   -0.028374
 H          9.481784    2.120216   -0.075765
 H         10.117762   -2.869843    0.080748
 C         11.070938   -0.921188    0.017308
 C         12.251581    1.216387   -0.057659
 C         12.493093   -1.157670    0.022569
 C         13.202018    0.029554   -0.018271
 C         12.424960    2.036492   -1.356098
 C         12.431858    2.130202    1.175353
 S         13.535983   -2.539008    0.066135
 C         14.599526   -0.151172   -0.015442
 H         11.689909    2.847954   -1.400865
 H         13.424827    2.483206   -1.395035
 H         12.295609    1.406313   -2.241671
 H         13.430822    2.580670    1.174431
 H         11.695365    2.941612    1.164944
 H         12.309673    1.567121    2.106006
 C         14.973781   -1.489116    0.028608
 H         15.334298    0.641916   -0.043781
 C         16.305643   -2.074417    0.046034
 C         16.514236   -3.447127    0.107728
 C         17.506564   -1.265914   -0.000568
 C         17.801477   -4.049295    0.125045
 H         15.655916   -4.111365    0.146340
 C         18.820741   -1.894033    0.017815
 N         17.567182    0.068133   -0.063074
 C         18.955629   -3.307737    0.081760
 H         17.857706   -5.132809    0.174694
 N         19.834738   -1.020055   -0.030887
 S         19.161110    0.477428   -0.095026
 H         19.941482   -3.758649    0.094744
