        76
S0: Total Energy = -4378.42360529
 C        -10.959394    0.437755   -0.000944
 C        -11.490208   -0.836184   -0.001706
 C        -12.912888   -0.860176   -0.001693
 C        -13.465773    0.391461   -0.000925
 S        -12.251446    1.630641   -0.000179
 H        -10.877769   -1.731804   -0.002294
 H        -13.499029   -1.772436   -0.002247
 H        -14.512034    0.666081   -0.000748
 C         -9.570987    0.843307   -0.000732
 C         -9.038686    2.112029   -0.000516
 S         -8.285743   -0.355030   -0.000722
 C         -7.616292    2.145772   -0.000347
 H         -9.642275    3.010856   -0.000504
 C         -7.032926    0.873489   -0.000443
 C         -5.637527    0.534043   -0.000340
 C         -5.134711   -0.731511   -0.000489
 H         -4.976019    1.395407   -0.000127
 H         -5.796099   -1.592844   -0.000713
 C         -3.739463   -1.070355   -0.000377
 C         -3.156210   -2.343690   -0.000509
 S         -2.487083    0.158549   -0.000024
 C         -1.735177   -2.311008   -0.000329
 C         -1.201495   -1.041285   -0.000064
 H         -1.132461   -3.210461   -0.000402
 C         -6.844443    3.408868   -0.000108
 O         -5.628512    3.511300    0.000043
 O         -7.664770    4.484007   -0.000069
 C         -3.928376   -3.606759   -0.000811
 O         -5.144187   -3.708830   -0.000986
 O         -3.108010   -4.681857   -0.000855
 C         -7.011043    5.764878    0.000167
 H         -6.387830    5.877089   -0.890565
 H         -7.815305    6.500421    0.000164
 H         -6.388039    5.876868    0.891072
 C         -3.761767   -5.962785   -0.001139
 H         -2.957494   -6.698305   -0.001136
 H         -4.384949   -6.074959    0.889604
 H         -4.384698   -6.074691   -0.892091
 C          0.183407   -0.640206    0.000157
 C          0.719110    0.634318    0.000290
 S          1.469014   -1.839335    0.000295
 C          2.131834    0.659004    0.000508
 H          0.109629    1.531657    0.000239
 C          2.711703   -0.595912    0.000548
 H          2.709610    1.577078    0.000662
 C          4.110015   -0.948507    0.000757
 C          4.687838   -2.198406    0.001301
 S          5.352646    0.295618    0.000302
 C          6.109675   -2.180505    0.001367
 H          4.117379   -3.118628    0.001677
 C          6.646923   -0.888112    0.000865
 C          6.926043   -3.415921    0.001932
 C          8.031174   -0.499322    0.000779
 O          8.144555   -3.475252    0.002037
 O          6.143750   -4.518890    0.002343
 C          8.487255    0.781484    0.000334
 H          8.722532   -1.336778    0.001112
 C          6.841868   -5.776261    0.002924
 H          7.795346    1.618683    0.000018
 C          9.873773    1.173040    0.000233
 H          7.468459   -5.865952    0.893825
 H          6.063785   -6.539421    0.003188
 H          7.468589   -5.866703   -0.887810
 C         10.405513    2.466931   -0.000209
 S         11.173877   -0.003849    0.000679
 C         11.836703    2.484682   -0.000175
 C          9.586234    3.698009   -0.000671
 C         12.386363    1.237476    0.000279
 H         12.415951    3.398726   -0.000481
 O          8.367001    3.756012   -0.000722
 O         10.365191    4.804623   -0.001041
 H         13.433564    0.966444    0.000404
 C          9.662249    6.058703   -0.001510
 H         10.437046    6.825335   -0.001758
 H          9.034955    6.146599   -0.892202
 H          9.034897    6.147234    0.889077
        76
T1: Total Energy = -4378.38266430
 C        -10.913816    0.424814   -0.001270
 C        -11.447367   -0.855569   -0.001553
 C        -12.865448   -0.879609   -0.001819
 C        -13.421343    0.373828   -0.001745
 S        -12.212847    1.617467   -0.001347
 H        -10.832317   -1.749055   -0.001576
 H        -13.452150   -1.791457   -0.002061
 H        -14.468746    0.644165   -0.001900
 C         -9.537541    0.821594   -0.000959
 C         -9.008356    2.108434   -0.000816
 S         -8.246644   -0.379127   -0.000705
 C         -7.608298    2.169457   -0.000525
 H         -9.628675    2.996404   -0.000938
 C         -6.986216    0.876239   -0.000437
 C         -5.634251    0.564616   -0.000200
 C         -5.101883   -0.750112   -0.000139
 H         -4.964539    1.419146   -0.000074
 H         -5.772580   -1.603917   -0.000252
 C         -3.755475   -1.059401    0.000038
 C         -3.131093   -2.362194    0.000101
 S         -2.490028    0.196775    0.000190
 C         -1.743354   -2.308536    0.000254
 C         -1.198767   -1.013469    0.000310
 H         -1.125632   -3.198433    0.000315
 C         -6.855263    3.433922   -0.000347
 O         -5.638020    3.544870   -0.000087
 O         -7.683537    4.507976   -0.000491
 C         -3.889114   -3.627199   -0.000003
 O         -5.105966   -3.731336   -0.000026
 O         -3.065379   -4.702809    0.000266
 C         -7.034586    5.789574   -0.000318
 H         -6.411162    5.905657   -0.890700
 H         -7.840895    6.523232   -0.000473
 H         -6.411547    5.905611    0.890341
 C         -3.718535   -5.983063    0.000353
 H         -2.914241   -6.718775    0.000575
 H         -4.341939   -6.096415    0.890979
 H         -4.341678   -6.096667   -0.890423
 C          0.163130   -0.642697    0.000413
 C          0.716312    0.645264    0.000438
 S          1.454869   -1.850339    0.000516
 C          2.113048    0.662968    0.000523
 H          0.106099    1.541668    0.000397
 C          2.698948   -0.603469    0.000574
 H          2.697093    1.577064    0.000561
 C          4.086869   -0.944079    0.000655
 C          4.670565   -2.199300    0.000901
 S          5.332311    0.302235    0.000432
 C          6.085717   -2.180446    0.000918
 H          4.099508   -3.119114    0.001088
 C          6.626229   -0.884204    0.000664
 C          6.902902   -3.416742    0.001183
 C          8.006802   -0.499709    0.000594
 O          8.121173   -3.473559    0.001163
 O          6.121514   -4.519372    0.001312
 C          8.465165    0.783423    0.000363
 H          8.698001   -1.337226    0.000743
 C          6.819973   -5.777034    0.001505
 H          7.773362    1.620745    0.000223
 C          9.849449    1.173395    0.000281
 H          7.446411   -5.866528    0.892465
 H          6.041842   -6.540053    0.001583
 H          7.446469   -5.866770   -0.889389
 C         10.382219    2.468151    0.000039
 S         11.149987   -0.004345    0.000469
 C         11.812576    2.484956    0.000023
 C          9.563041    3.699102   -0.000172
 C         12.361932    1.237032    0.000250
 H         12.392538    3.398542   -0.000147
 O          8.343685    3.756236   -0.000217
 O         10.341676    4.805775   -0.000443
 H         13.409203    0.966237    0.000295
 C          9.638544    6.059841   -0.000729
 H         10.413269    6.826523   -0.000920
 H          9.011239    6.147711   -0.891406
 H          9.011262    6.148130    0.889921
        76
S1: Total Energy = -4378.35654046
 C        -10.918447    0.444945   -0.046693
 C        -11.459156   -0.831518   -0.074464
 C        -12.877199   -0.846775   -0.096139
 C        -13.425857    0.410190   -0.085123
 S        -12.209956    1.645291   -0.047666
 H        -10.850136   -1.729217   -0.079190
 H        -13.469336   -1.754876   -0.119021
 H        -14.471564    0.686994   -0.096390
 C         -9.538202    0.837249   -0.021131
 C         -9.001110    2.114435    0.003271
 S         -8.254172   -0.366488   -0.019471
 C         -7.591198    2.157007    0.022426
 H         -9.610077    3.010011    0.006547
 C         -6.993574    0.871372    0.013336
 C         -5.621968    0.540072    0.024818
 C         -5.108298   -0.746686    0.017826
 H         -4.954868    1.397155    0.040026
 H         -5.774924   -1.603784    0.007491
 C         -3.737888   -1.072561    0.022531
 C         -3.136136   -2.362786    0.018626
 S         -2.480861    0.169933    0.031556
 C         -1.735940   -2.324281    0.022308
 C         -1.189910   -1.037839    0.028782
 H         -1.127345   -3.220032    0.019623
 C         -6.824870    3.416291    0.048568
 O         -5.607006    3.518279    0.064071
 O         -7.644879    4.495578    0.053813
 C         -3.903930   -3.625381    0.011001
 O         -5.120562   -3.724897    0.005778
 O         -3.084550   -4.702710    0.010296
 C         -6.987529    5.772998    0.079413
 H         -6.353307    5.896979   -0.802209
 H         -7.789063    6.511782    0.080563
 H         -6.373941    5.871775    0.978641
 C         -3.741141   -5.981760    0.002838
 H         -2.938607   -6.719263    0.003472
 H         -4.368242   -6.096234    0.890614
 H         -4.360798   -6.089667   -0.890970
 C          0.172623   -0.661956    0.030229
 C          0.722806    0.630161    0.033775
 S          1.464102   -1.868314    0.023994
 C          2.114402    0.654331    0.030791
 H          0.108769    1.524055    0.037859
 C          2.709452   -0.616692    0.025038
 H          2.696579    1.569311    0.032484
 C          4.086948   -0.944673    0.018964
 C          4.679414   -2.207032    0.015762
 S          5.333102    0.308652    0.012124
 C          6.083739   -2.189817    0.007923
 H          4.106816   -3.126137    0.019084
 C          6.632506   -0.882699    0.004389
 C          6.899367   -3.424350    0.003502
 C          7.998370   -0.503118   -0.005045
 O          8.118152   -3.479648   -0.003686
 O          6.119652   -4.529891    0.008507
 C          8.460378    0.792613   -0.010212
 H          8.694047   -1.336836   -0.009011
 C          6.821784   -5.784903    0.004782
 H          7.763744    1.626167   -0.006451
 C          9.830428    1.181963   -0.021241
 H          7.454185   -5.872820    0.891771
 H          6.046154   -6.550578    0.009872
 H          7.443275   -5.873638   -0.889806
 C         10.367953    2.484397   -0.028213
 S         11.139183    0.001723   -0.029236
 C         11.795151    2.497209   -0.039836
 C          9.551159    3.710268   -0.024315
 C         12.347100    1.248256   -0.041671
 H         12.376655    3.410053   -0.046438
 O          8.329964    3.767559   -0.013955
 O         10.328126    4.822061   -0.033857
 H         13.395441    0.981341   -0.049421
 C          9.620145    6.071794   -0.031134
 H         10.391076    6.842545   -0.040116
 H          8.983982    6.156047   -0.916146
 H          8.999708    6.161110    0.864482
