       180
S0: Total Energy = -6857.89307293
 C          4.656316   -0.865534   -0.019562
 C          5.574902   -1.910420   -0.040633
 C          6.911859   -1.467394   -0.038259
 C          7.034340   -0.093692   -0.008397
 C          8.424281    0.310745    0.007416
 C          9.196463   -0.879569    0.007339
 C         10.583413   -0.817560    0.002230
 S          5.504776    0.704518    0.014427
 C          8.290424   -2.134317   -0.015393
 H         11.186914   -1.720569   -0.006216
 C         14.932286    1.613828    0.032315
 C         14.053208    2.666293    0.053770
 C         12.700730    2.224829    0.052066
 C         12.578480    0.854329    0.022741
 C         11.186522    0.446999    0.007225
 C         10.414072    1.637698    0.007129
 C          9.028227    1.576566    0.012341
 S         14.122091    0.063021    0.000497
 C         11.322390    2.891188    0.030943
 H          8.424536    2.479458    0.020813
 C          8.391330   -2.993497    1.263642
 C          7.796587   -4.265464    1.295478
 C          7.797604   -5.032174    2.457854
 C          8.392712   -4.563385    3.638172
 C          8.976938   -3.293317    3.606229
 C          8.977111   -2.519962    2.442568
 H          7.332040   -4.664619    0.398370
 H          7.327024   -6.013136    2.447749
 H          9.442027   -2.895294    4.505520
 H          9.437352   -1.537834    2.463308
 C          8.603304   -2.944938   -1.290639
 C          9.644111   -3.886048   -1.300958
 C          9.989707   -4.563961   -2.468773
 C          9.309506   -4.334274   -3.672334
 C          8.275189   -3.391488   -3.660517
 C          7.927560   -2.708494   -2.493905
 H         10.186648   -4.100147   -0.384939
 H         10.802511   -5.286741   -2.442307
 H          7.728693   -3.184912   -4.578262
 H          7.121478   -1.982347   -2.526757
 C         11.011506    3.699798    1.307949
 C          9.969140    4.639341    1.323145
 C          9.626569    5.315119    2.492946
 C         10.311511    5.085052    3.693932
 C         11.347481    4.144328    3.677190
 C         11.692102    3.463259    2.508360
 H          9.422832    4.853678    0.409394
 H          8.812169    6.036228    2.470364
 H         11.897412    3.937487    4.592843
 H         12.498961    2.737707    2.536940
 C         11.222143    3.752643   -1.246682
 C         11.808433    5.028499   -1.274203
 C         11.809143    5.796534   -2.436014
 C         11.224209    5.325067   -3.620086
 C         10.648630    4.050696   -3.592730
 C         10.646704    3.276474   -2.429945
 H         12.264235    5.430453   -0.373819
 H         12.272378    6.780964   -2.422040
 H         10.191386    3.650466   -4.495079
 H         10.193227    2.291268   -2.454102
 C          8.418392   -5.411535    4.888180
 H          9.210774   -6.170375    4.839052
 H          8.602697   -4.803755    5.779873
 C          9.663317   -5.096895   -4.927637
 H          9.377976   -4.541421   -5.827070
 H         10.737809   -5.303228   -4.981502
 C          9.959653    5.844965    4.951436
 H          8.881827    6.028559    5.020054
 H         10.269467    5.299090    5.848587
 C         11.198000    6.174526   -4.869193
 H         11.051566    5.563124   -5.765499
 H         10.380654    6.907337   -4.835830
 H          7.471636   -5.944745    5.030067
 H          9.146154   -6.065149   -4.964730
 H         10.456157    6.824321    4.977473
 H         12.129916    6.737960   -4.990346
 H         14.371220    3.702646    0.068298
 H         16.013701    1.646320    0.030868
 H          5.262395   -2.944351   -0.055624
 C          3.207268   -0.952970   -0.022476
 C          2.480789   -2.206421   -0.067626
 C          2.365202    0.143715    0.017152
 N          3.046125   -3.412495   -0.115596
 C          1.018724   -2.263719   -0.067376
 C          0.951087    0.088117    0.017439
 F          2.874298    1.391000    0.060215
 S          1.839526   -4.524564   -0.156140
 N          0.549388   -3.510406   -0.115147
 C          0.197267   -1.070868   -0.021948
 F          0.345785    1.291432    0.060692
 C         -1.254815   -1.096143   -0.019223
 C         -2.088846   -2.209444   -0.042575
 S         -2.221742    0.403163    0.016383
 C         -3.456313   -1.871444   -0.040948
 H         -1.696862   -3.215849   -0.059201
 C         -3.685134   -0.511426   -0.009226
 C         -4.778091   -2.644547   -0.022567
 C         -5.101682   -0.216580    0.003300
 C         -5.779356   -1.464707   -0.001021
 C         -5.022984   -3.475409   -1.299721
 C         -4.814654   -3.510440    1.255444
 C         -5.801463    0.998872    0.007923
 C         -7.165450   -1.510735   -0.011589
 C         -5.986331   -4.495550   -1.313788
 C         -4.364884   -3.184458   -2.500832
 C         -4.123235   -4.732534    1.286702
 C         -5.436751   -3.084814    2.434009
 C         -7.187854    0.952725   -0.002566
 H         -5.269549    1.945665    0.020209
 C         -7.865011   -0.295221   -0.007381
 H         -7.697395   -2.457535   -0.024032
 C         -6.274146   -5.197027   -2.483380
 H         -6.512516   -4.753509   -0.399510
 C         -4.654282   -3.891301   -3.669114
 H         -3.618450   -2.396984   -2.530822
 C         -4.066252   -5.498168    2.448381
 H         -3.628180   -5.093617    0.389793
 C         -5.378036   -3.856986    3.596952
 H         -5.971665   -2.141273    2.455465
 C         -8.189246    2.132665    0.018856
 C         -9.282001   -0.000500    0.003324
 C         -5.610897   -4.912829   -3.684746
 H         -7.027568   -5.981558   -2.459970
 H         -4.123381   -3.640988   -4.585109
 C         -4.697137   -5.077965    3.628422
 H         -3.521230   -6.439779    2.437914
 H         -5.873714   -3.497181    4.495968
 C         -9.510977    1.359403    0.034851
 C         -8.151342    2.999940   -1.258172
 C         -7.945882    2.962337    1.297132
 S        -10.743859   -0.915911   -0.026690
 C         -5.899826   -5.699436   -4.941821
 C         -4.658343   -5.926727    4.877646
 C        -10.879213    1.695662    0.032532
 C         -8.843828    4.221454   -1.289036
 C         -7.526769    2.576341   -2.436145
 C         -6.982309    3.982243    1.313147
 C         -8.605462    2.670529    2.497177
 C        -11.711179    0.582088    0.006325
 H         -6.953147   -5.995248   -4.995911
 H         -5.662508   -5.119770   -5.839939
 H         -5.302960   -6.620590   -4.981254
 H         -4.892870   -5.336518    5.769329
 H         -5.387541   -6.746258    4.825600
 H         -3.672454   -6.382897    5.021572
 H        -11.272330    2.701884    0.048122
 C         -8.899540    4.988477   -2.449853
 H         -9.340549    4.581104   -0.392461
 C         -7.584160    3.349974   -3.598200
 H         -6.990705    1.633460   -2.457786
 C         -6.695762    4.682678    2.483633
 H         -6.454877    4.240756    0.399754
 C         -8.317355    3.376392    3.666390
 H         -9.351937    1.883021    2.525793
 C        -13.166446    0.559498    0.003432
 C         -8.266158    4.570348   -3.629308
 H         -9.445335    5.929631   -2.439096
 H         -7.086352    2.991902   -4.496728
 C         -7.360534    4.397660    3.683989
 H         -5.942058    5.466969    2.461773
 H         -8.849386    3.125448    4.581550
 C        -13.975252    1.766266    0.046281
 C        -13.913750   -0.603609   -0.040841
 C         -8.303347    5.420789   -4.877435
 C         -7.072708    5.183115    4.942024
 N        -13.513192    3.016531    0.096178
 C        -15.431993    1.703321    0.039023
 C        -15.338605   -0.654077   -0.047044
 F        -13.306689   -1.806088   -0.082457
 H         -7.574775    6.240701   -4.822918
 H         -8.066806    4.831995   -5.769524
 H         -9.289262    5.876561   -5.022450
 H         -7.315774    4.604571    5.839308
 H         -6.018287    5.474282    4.999870
 H         -7.665606    6.106917    4.979154
 S        -14.817090    4.018449    0.129442
 N        -16.021948    2.901202    0.082486
 C        -16.120670    0.459892   -0.009283
 F        -15.881548   -1.879505   -0.093419
 H        -17.201691    0.402242   -0.015211
       180
T1: Total Energy = -6857.85205953
 C          4.610413   -0.833469   -0.007485
 C          5.543213   -1.897178   -0.037915
 C          6.865388   -1.464754   -0.034845
 C          7.002982   -0.077617    0.003696
 C          8.382826    0.309321    0.011409
 C          9.152815   -0.889370   -0.002504
 C         10.536914   -0.834183   -0.019496
 S          5.479313    0.739560    0.035005
 C          8.240961   -2.138750   -0.023697
 H         11.136406   -1.739459   -0.039131
 C         14.894006    1.568490   -0.012565
 C         14.023288    2.628791    0.023059
 C         12.669230    2.198121    0.030081
 C         12.536808    0.826041   -0.006802
 C         11.147116    0.429371   -0.012041
 C         10.379307    1.628313    0.002161
 C          8.997359    1.576155    0.019309
 S         14.074889    0.023501   -0.047009
 C         11.296562    2.875123    0.025677
 H          8.397785    2.481362    0.038543
 C          8.344744   -3.001026    1.253114
 C          7.740475   -4.268627    1.285376
 C          7.745519   -5.038138    2.445301
 C          8.353728   -4.576662    3.622319
 C          8.947262   -3.311352    3.589429
 C          8.942987   -2.534233    2.427931
 H          7.264827   -4.661250    0.391355
 H          7.267004   -6.015145    2.436415
 H          9.422403   -2.919330    4.485999
 H          9.409972   -1.555250    2.448700
 C          8.541185   -2.946382   -1.303712
 C          9.575296   -3.894483   -1.321142
 C          9.911671   -4.569837   -2.493130
 C          9.228505   -4.330274   -3.692996
 C          8.200980   -3.380090   -3.673672
 C          7.862708   -2.699233   -2.503280
 H         10.118963   -4.116889   -0.407812
 H         10.718868   -5.298972   -2.472571
 H          7.651959   -3.166375   -4.588160
 H          7.060406   -1.968786   -2.530995
 C         11.003356    3.677154    1.311043
 C          9.967282    4.623289    1.341491
 C          9.640038    5.293390    2.518732
 C         10.334551    5.050820    3.711918
 C         11.364106    4.103651    3.679621
 C         11.693339    3.427757    2.503273
 H          9.414268    4.847491    0.434181
 H          8.830258    6.019877    2.508364
 H         11.921020    3.887202    4.588736
 H         12.495471    2.696584    2.520484
 C         11.191958    3.744879   -1.246157
 C         11.783363    5.018309   -1.268967
 C         11.780543    5.793134   -2.426310
 C         11.187102    5.331049   -3.609757
 C         10.606697    4.058668   -3.586969
 C         10.608375    3.277532   -2.428994
 H         12.245530    5.413346   -0.368818
 H         12.247601    6.775633   -2.409063
 H         10.142827    3.665639   -4.489030
 H         10.150901    2.294269   -2.457183
 C          8.378405   -5.427664    4.870291
 H          9.115108   -6.237589    4.786170
 H          8.640606   -4.835330    5.752661
 C          9.570926   -5.090789   -4.952606
 H          9.304806   -4.520963   -5.848967
 H         10.640113   -5.323732   -5.001755
 C          9.998407    5.804328    4.977457
 H          8.920355    5.978050    5.065640
 H         10.328981    5.258977    5.867391
 C         11.156445    6.188104   -4.853463
 H         11.018523    5.581129   -5.754111
 H         10.331566    6.912282   -4.817689
 H          7.405277   -5.897336    5.053628
 H          9.029288   -6.045019   -5.000659
 H         10.486346    6.788073    4.996807
 H         12.083030    6.761470   -4.967928
 H         14.349920    3.662253    0.041198
 H         15.975603    1.593986   -0.023337
 H          5.212808   -2.925065   -0.058585
 C          3.194179   -0.925386   -0.008837
 C          2.475004   -2.186010   -0.053291
 C          2.335638    0.216912    0.032885
 N          3.050017   -3.384639   -0.101218
 C          1.012427   -2.242089   -0.051708
 C          0.967262    0.165096    0.034162
 F          2.888266    1.450408    0.075175
 S          1.831633   -4.524891   -0.141159
 N          0.530407   -3.480550   -0.098371
 C          0.198249   -1.039514   -0.005763
 F          0.322241    1.353245    0.077526
 C         -1.219936   -1.055937   -0.002038
 C         -2.069796   -2.187922   -0.030963
 S         -2.205843    0.446801    0.041213
 C         -3.420263   -1.857349   -0.026679
 H         -1.662767   -3.187903   -0.052180
 C         -3.663207   -0.483939    0.011490
 C         -4.740138   -2.634640   -0.014873
 C         -5.067124   -0.203483    0.018531
 C         -5.744620   -1.458540    0.004822
 C         -4.977673   -3.464514   -1.293861
 C         -4.777822   -3.500500    1.263248
 C         -5.776057    1.013602    0.025194
 C         -7.127256   -1.508803   -0.013627
 C         -5.936727   -4.488482   -1.310051
 C         -4.319503   -3.168157   -2.493599
 C         -4.081029   -4.719617    1.296107
 C         -5.406567   -3.077305    2.438676
 C         -7.157597    0.961129    0.006529
 H         -5.246958    1.961639    0.044812
 C         -7.832414   -0.293512   -0.007682
 H         -7.656491   -2.456807   -0.033486
 C         -6.220114   -5.189303   -2.481103
 H         -6.462253   -4.750581   -0.396609
 C         -4.604345   -3.874704   -3.662997
 H         -3.575005   -2.378896   -2.522326
 C         -4.026379   -5.485294    2.457336
 H         -3.579374   -5.077405    0.401687
 C         -5.350482   -3.850410    3.601456
 H         -5.944946   -2.135674    2.459125
 C         -8.165311    2.135594    0.027489
 C         -9.244944   -0.006667   -0.003318
 C         -5.556543   -4.900399   -3.681090
 H         -6.969688   -5.977494   -2.459635
 H         -4.072803   -3.621221   -4.577650
 C         -4.664510   -5.068105    3.635001
 H         -3.476733   -6.424121    2.448912
 H         -5.851537   -3.493188    4.498442
 C         -9.482106    1.354746    0.033365
 C         -8.126332    3.007652   -1.246403
 C         -7.933158    2.960913    1.310646
 S        -10.703042   -0.929825   -0.043595
 C         -5.839451   -5.686818   -4.939549
 C         -4.623523   -5.916451    4.884339
 C        -10.849946    1.683187    0.026764
 C         -8.823190    4.226646   -1.274502
 C         -7.497293    2.590034   -2.424131
 C         -6.975152    3.985905    1.335336
 C         -8.596705    2.659725    2.506016
 C        -11.676532    0.563831   -0.008091
 H         -6.886872   -6.003759   -4.986820
 H         -5.620608   -5.098520   -5.836766
 H         -5.223902   -6.595127   -4.987588
 H         -4.921141   -5.342034    5.767323
 H         -5.303192   -6.775297    4.805475
 H         -3.619370   -6.317632    5.062822
 H        -11.249200    2.686895    0.045012
 C         -8.878231    4.997579   -2.432764
 H         -9.323598    4.581423   -0.378067
 C         -7.553990    3.367690   -3.583419
 H         -6.957893    1.649118   -2.448230
 C         -6.697868    4.682380    2.510239
 H         -6.445041    4.251527    0.425559
 C         -8.317927    3.362039    3.679720
 H         -9.338977    1.868014    2.528154
 C        -13.130663    0.535349   -0.017648
 C         -8.240020    4.585928   -3.611858
 H         -9.427199    5.936811   -2.420124
 H         -7.052450    3.014569   -4.481772
 C         -7.366683    4.388177    3.706281
 H         -5.948287    5.470719    2.495423
 H         -8.852768    3.104086    4.591229
 C        -13.944625    1.738729    0.024920
 C        -13.872463   -0.631963   -0.068516
 C         -8.276070    5.440895   -4.856841
 C         -7.088074    5.169158    4.969098
 N        -13.488654    2.990798    0.080343
 C        -15.400864    1.668760    0.010867
 C        -15.296487   -0.688823   -0.081359
 F        -13.259041   -1.830765   -0.110703
 H         -7.544104    6.257623   -4.800353
 H         -8.043084    4.854484   -5.751415
 H         -9.260410    5.900995   -4.998448
 H         -7.347674    4.591452    5.862195
 H         -6.031919    5.450862    5.040806
 H         -7.673032    6.098200    4.999732
 S        -14.797678    3.986697    0.110463
 N        -15.996760    2.863650    0.054960
 C        -16.083303    0.422216   -0.044018
 F        -15.834159   -1.916158   -0.133565
 H        -17.164034    0.359760   -0.055024
       180
S1: Total Energy = -6857.83311372
 C          4.615520   -0.834703   -0.000163
 C          5.536419   -1.893726   -0.034469
 C          6.865950   -1.461478   -0.032006
 C          7.002912   -0.077847    0.009322
 C          8.382011    0.309918    0.013836
 C          9.153201   -0.890666   -0.004545
 C         10.535651   -0.836043   -0.026186
 S          5.478222    0.735073    0.044659
 C          8.239279   -2.137985   -0.024816
 H         11.135255   -1.741129   -0.049608
 C         14.889852    1.564006   -0.028861
 C         14.020149    2.626520    0.011539
 C         12.667333    2.198226    0.022001
 C         12.533167    0.823612   -0.017149
 C         11.146691    0.428757   -0.018115
 C         10.378015    1.629029    0.000994
 C          8.996710    1.577099    0.022216
 S         14.070865    0.019589   -0.063570
 C         11.295345    2.875533    0.023279
 H          8.397147    2.482173    0.044496
 C          8.343676   -3.000974    1.251301
 C          7.739884   -4.268554    1.282708
 C          7.744607   -5.038363    2.442715
 C          8.351902   -4.577142    3.619964
 C          8.944200   -3.310846    3.588199
 C          8.940191   -2.533625    2.427201
 H          7.263899   -4.660753    0.388757
 H          7.265736   -6.015123    2.433483
 H          9.417508   -2.918385    4.485580
 H          9.405380   -1.553752    2.449088
 C          8.536125   -2.943519   -1.306637
 C          9.567815   -3.894317   -1.328218
 C          9.899690   -4.567872   -2.502382
 C          9.214078   -4.323990   -3.700178
 C          8.188871   -3.371475   -3.676450
 C          7.855197   -2.692070   -2.503861
 H         10.112579   -4.120352   -0.416413
 H         10.704897   -5.299315   -2.485346
 H          7.637746   -3.155054   -4.588995
 H          7.054301   -1.959900   -2.527663
 C         11.006432    3.675283    1.310826
 C          9.972966    4.623956    1.345042
 C          9.649371    5.291697    2.524688
 C         10.344962    5.043999    3.716134
 C         11.371740    4.093801    3.679975
 C         11.697237    3.420145    2.501463
 H          9.419095    4.851983    0.439247
 H          8.841522    6.020302    2.517531
 H         11.929062    3.873040    4.587770
 H         12.496957    2.686215    2.515993
 C         11.188274    3.745512   -1.248194
 C         11.775593    5.020891   -1.270805
 C         11.770242    5.795399   -2.428257
 C         11.178520    5.331047   -3.611777
 C         10.602459    4.056690   -3.589019
 C         10.606725    3.275644   -2.431032
 H         12.236016    5.417803   -0.370626
 H         12.233776    6.779543   -2.411033
 H         10.139947    3.662063   -4.491022
 H         10.152457    2.290878   -2.459424
 C          8.379668   -5.429041    4.867197
 H          9.162967   -6.196557    4.808190
 H          8.578870   -4.825988    5.758862
 C          9.551883   -5.082894   -4.961963
 H          9.267462   -4.518961   -5.856363
 H         10.623524   -5.301565   -5.023279
 C         10.013281    5.795118    4.984192
 H          8.937866    5.986693    5.066333
 H         10.328736    5.238728    5.872796
 C         11.145671    6.187868   -4.855509
 H         10.995031    5.581886   -5.754718
 H         10.327863    6.919610   -4.813101
 H          7.428285   -5.951895    5.015854
 H          9.022888   -6.044563   -5.001105
 H         10.518086    6.770094    5.012910
 H         12.076503    6.752788   -4.977593
 H         14.348766    3.659262    0.030599
 H         15.971463    1.589281   -0.042983
 H          5.202445   -2.920610   -0.058388
 C          3.180001   -0.922355    0.000176
 C          2.467518   -2.179614   -0.049481
 C          2.342060    0.207389    0.048054
 N          3.054048   -3.384142   -0.103783
 C          1.013449   -2.235704   -0.047151
 C          0.956794    0.155704    0.050078
 F          2.884152    1.446171    0.096376
 S          1.828652   -4.517352   -0.147891
 N          0.520662   -3.479874   -0.099457
 C          0.206136   -1.034617    0.004843
 F          0.322748    1.350187    0.100048
 C         -1.228995   -1.056121    0.008033
 C         -2.068346   -2.184048   -0.023981
 S         -2.208032    0.444167    0.053842
 C         -3.424205   -1.855012   -0.019704
 H         -1.656995   -3.182379   -0.048436
 C         -3.667399   -0.482934    0.021076
 C         -4.741585   -2.634512   -0.011506
 C         -5.067388   -0.202377    0.025162
 C         -5.747612   -1.460356    0.007162
 C         -4.975902   -3.462578   -1.292012
 C         -4.779439   -3.500767    1.266308
 C         -5.777102    1.016492    0.032471
 C         -7.127373   -1.510622   -0.015642
 C         -5.932524   -4.488865   -1.311395
 C         -4.315807   -3.162489   -2.489676
 C         -4.082898   -4.719787    1.298213
 C         -5.406508   -3.076770    2.442680
 C         -7.156391    0.964330    0.010041
 H         -5.247355    1.963989    0.055154
 C         -7.834187   -0.292902   -0.008795
 H         -7.657242   -2.458094   -0.039114
 C         -6.211836   -5.188252   -2.484105
 H         -6.458783   -4.754002   -0.399240
 C         -4.596416   -3.868058   -3.660728
 H         -3.572717   -2.371759   -2.515492
 C         -4.027668   -5.485543    2.459571
 H         -3.581080   -5.077173    0.403797
 C         -5.349986   -3.849908    3.605020
 H         -5.943532   -2.134330    2.464226
 C         -8.163981    2.138430    0.030120
 C         -9.239904   -0.008441   -0.007800
 C         -5.546277   -4.895756   -3.682324
 H         -6.959403   -5.978408   -2.465505
 H         -4.063132   -3.612360   -4.573693
 C         -4.664857   -5.068444    3.637503
 H         -3.477617   -6.424044    2.450847
 H         -5.849363   -3.492186    4.502744
 C         -9.479997    1.357346    0.031475
 C         -8.123544    3.010617   -1.243652
 C         -7.934947    2.961514    1.315100
 S        -10.698829   -0.932963   -0.051748
 C         -5.825039   -5.681028   -4.942361
 C         -4.626110   -5.917597    4.886281
 C        -10.844295    1.683942    0.023989
 C         -8.818388    4.230776   -1.271456
 C         -7.495654    2.591181   -2.421332
 C         -6.979498    3.988657    1.342488
 C         -8.598139    2.654974    2.509374
 C        -11.672360    0.561600   -0.014436
 H         -6.875672   -5.985467   -5.000445
 H         -5.589325   -5.097154   -5.838119
 H         -5.220174   -6.596862   -4.981740
 H         -4.870074   -5.329924    5.777069
 H         -5.348425   -6.742863    4.829289
 H         -3.637355   -6.365842    5.034749
 H        -11.246065    2.686568    0.043899
 C         -8.871887    5.001584   -2.429759
 H         -9.318258    4.586462   -0.375130
 C         -7.550707    3.368996   -3.580535
 H         -6.958145    1.649160   -2.445800
 C         -6.704686    4.682775    2.519393
 H         -6.449569    4.257909    0.433705
 C         -8.321925    3.355118    3.684841
 H         -9.338285    1.861180    2.529572
 C        -13.123353    0.534457   -0.025934
 C         -8.234384    4.588572   -3.608847
 H         -9.419109    5.941789   -2.417199
 H         -7.049920    3.014893   -4.478866
 C         -7.373392    4.383800    3.714280
 H         -5.957146    5.473028    2.507006
 H         -8.856393    3.093344    4.595434
 C        -13.935771    1.739090    0.017188
 C        -13.866216   -0.636030   -0.079383
 C         -8.269338    5.443438   -4.853840
 C         -7.097915    5.162358    4.979198
 N        -13.478813    2.990352    0.074744
 C        -15.392551    1.668882    0.001163
 C        -15.286700   -0.691382   -0.094157
 F        -13.249667   -1.833777   -0.122175
 H         -7.541882    6.263893   -4.793768
 H         -8.029468    4.858362   -5.747414
 H         -9.255402    5.898531   -4.999591
 H         -7.341921    4.575972    5.871045
 H         -6.045948    5.460473    5.044680
 H         -7.697626    6.081590    5.018930
 S        -14.789266    3.988528    0.104596
 N        -15.989245    2.864053    0.046031
 C        -16.073225    0.422648   -0.056251
 F        -15.828779   -1.917513   -0.148688
 H        -17.153964    0.359730   -0.068837
