       128
S0: Total Energy = -6568.06051180
 C        -18.809840    4.332189   -0.439350
 C        -18.756670    2.928223   -0.271635
 C        -16.328939    3.025558   -0.265482
 C        -17.536203    2.282855   -0.192764
 H        -19.682521    2.366304   -0.184659
 C        -15.247999    2.069774   -0.142247
 C        -17.254950    0.783728   -0.010342
 S        -13.518585    2.120272   -0.130573
 C        -15.732886    0.786012    0.003352
 C        -17.810505   -0.042660   -1.191932
 C        -17.833495    0.259179    1.323022
 C        -13.439444    0.352952    0.077487
 C        -14.717918   -0.187363    0.126891
 H        -17.534903   -1.097759   -1.083204
 H        -18.904142    0.019041   -1.226363
 H        -17.415697    0.318579   -2.146820
 H        -18.927105    0.329336    1.323898
 H        -17.562241   -0.792405    1.470094
 H        -17.451921    0.834459    2.172463
 C        -12.149528   -0.309742    0.170590
 H        -14.880944   -1.249491    0.248319
 C        -10.945696    0.383275    0.132054
 C        -12.012595   -1.741398    0.311598
 C         -9.677945   -0.229394    0.221213
 H        -10.959420    1.464550    0.032409
 C        -10.699351   -2.375352    0.401662
 N        -13.019428   -2.617999    0.371158
 C         -9.483725   -1.598162    0.354648
 H         -8.813641    0.427345    0.187912
 N        -10.768551   -3.704374    0.524279
 S        -12.358400   -4.112543    0.526817
 C        -17.599606    5.050234   -0.511978
 C        -16.363669    4.412733   -0.422073
 H        -17.626721    6.126095   -0.660357
 H        -15.446857    4.992385   -0.483366
 C        -20.107932    5.007225   -0.538502
 C        -21.317654    4.488237   -0.946717
 S        -20.304132    6.698653   -0.100827
 C        -22.387385    5.429152   -0.917821
 H        -21.433392    3.465034   -1.287180
 C        -21.995502    6.666748   -0.486617
 H        -23.403897    5.194347   -1.214918
 H        -22.593127    7.560853   -0.369830
 C         -8.161568   -2.198098    0.437357
 S         -6.714027   -1.213529    0.225263
 C         -7.796525   -3.511586    0.673173
 C         -5.648937   -2.584430    0.479229
 C         -6.397832   -3.723581    0.696551
 H         -8.526339   -4.292633    0.834828
 C         -4.194024   -2.442885    0.437044
 H         -5.951796   -4.690829    0.899946
 C         -3.383362   -3.571974    0.165076
 C         -3.567473   -1.200549    0.666683
 C         -2.007211   -3.448781    0.137652
 H         -3.853011   -4.529189   -0.043250
 C         -2.181954   -1.062754    0.633554
 H         -4.176462   -0.330602    0.895578
 C         -1.396910   -2.188118    0.371682
 C         -0.953361   -4.531419   -0.140033
 H         -1.727172   -0.093569    0.817987
 C          0.031457   -2.394442    0.265921
 C          0.323891   -3.711837   -0.024485
 C         -1.117151   -5.128947   -1.555657
 C         -1.004616   -5.654881    0.919714
 S          1.457121   -1.423559    0.403245
 C          1.706992   -3.967492   -0.142127
 H         -0.313133   -5.843963   -1.763681
 H         -2.072091   -5.659317   -1.643031
 H         -1.087444   -4.346565   -2.320542
 H         -1.957215   -6.193930    0.865713
 H         -0.197951   -6.376954    0.749882
 H         -0.895685   -5.249866    1.930783
 C          2.486539   -2.836170    0.061887
 H          2.148920   -4.928583   -0.366565
 C          3.932032   -2.689976    0.031900
 C          4.571029   -1.493061    0.331868
 C          4.821869   -3.774990   -0.312647
 C          5.970680   -1.317465    0.308819
 H          3.974795   -0.628879    0.609473
 C          6.271052   -3.592045   -0.337707
 N          4.447534   -5.015736   -0.638426
 C          6.874599   -2.320085   -0.018136
 H          6.344850   -0.332564    0.572167
 N          6.931365   -4.701889   -0.681686
 S          5.812735   -5.872995   -0.948506
 C          8.312283   -2.102775   -0.038945
 S          8.981030   -0.493829    0.232972
 C          9.342484   -3.001511   -0.251296
 C         10.631480   -1.067474    0.075678
 C         10.631946   -2.422857   -0.186401
 H          9.162644   -4.051107   -0.437787
 C         11.773134   -0.162866    0.207890
 H         11.542989   -2.999701   -0.301252
 C         13.016942   -0.508527   -0.374321
 C         11.670679    1.055778    0.909871
 C         14.103965    0.334804   -0.243004
 H         13.102749   -1.430447   -0.942402
 C         12.757198    1.917316    1.041726
 H         10.727897    1.323887    1.378216
 C         13.978401    1.557550    0.467527
 C         15.526804    0.157940   -0.794520
 H         12.649995    2.848199    1.591408
 C         15.274242    2.200974    0.414712
 C         16.180174    1.437362   -0.292026
 C         15.528772    0.088562   -2.338291
 C         16.209566   -1.097340   -0.206535
 S         15.975770    3.668103    1.005355
 C         17.463844    2.021424   -0.372444
 H         16.555929    0.038249   -2.716859
 H         14.996714   -0.804372   -2.685308
 H         15.044632    0.968186   -2.774101
 H         15.688932   -2.006462   -0.528042
 H         17.247904   -1.163487   -0.550650
 H         16.211443   -1.070604    0.887727
 C         17.543312    3.244910    0.276672
 H         18.317553    1.589740   -0.877001
 C         18.679717    4.147619    0.412292
 C         18.580003    5.379493    1.043665
 C         19.993024    3.819843   -0.102161
 C         19.670818    6.280627    1.195122
 H         17.621396    5.690482    1.448386
 C         21.102554    4.749779    0.056993
 N         20.340318    2.699621   -0.744596
 C         20.924651    5.996091    0.718188
 H         19.488002    7.221450    1.706037
 N         22.252863    4.308482   -0.468315
 S         21.938659    2.829455   -1.109839
 H         21.761422    6.676654    0.827948
       128
T1: Total Energy = -6568.02087592
 C         18.782126    4.334271    0.336520
 C         18.728002    2.926146    0.208738
 C         16.300384    3.025001    0.200786
 C         17.507107    2.279586    0.148852
 H         19.653354    2.361338    0.137169
 C         15.218828    2.067241    0.105016
 C         17.224958    0.776024    0.009789
 S         13.489737    2.119223    0.092175
 C         15.702913    0.779010   -0.004311
 C         17.779270   -0.015947    1.215345
 C         17.803694    0.212222   -1.307362
 C         13.408947    0.346451   -0.064997
 C         14.687638   -0.196187   -0.099970
 H         17.503160   -1.073601    1.137162
 H         18.872893    0.046176    1.248556
 H         17.384158    0.373165    2.159089
 H         18.897384    0.280888   -1.309272
 H         17.531242   -0.842855   -1.423901
 H         17.423549    0.762991   -2.173519
 C         12.119684   -0.317480   -0.136710
 H         14.849676   -1.261433   -0.191692
 C         10.915285    0.376890   -0.100310
 C         11.981850   -1.751589   -0.252271
 C          9.648240   -0.236736   -0.168359
 H         10.930049    1.459519   -0.017694
 C         10.668311   -2.387297   -0.320874
 N         12.988449   -2.628601   -0.306090
 C          9.453013   -1.608914   -0.276931
 H          8.784076    0.420284   -0.137089
 N         10.736981   -3.717869   -0.422472
 S         12.327249   -4.125954   -0.431726
 C         17.572274    5.054995    0.389317
 C         16.336019    4.416149    0.317931
 H         17.600181    6.134587    0.507136
 H         15.419602    4.997859    0.363085
 C         20.080502    5.011149    0.415926
 C         21.290746    4.502540    0.835713
 S         20.276428    6.690654   -0.065603
 C         22.360548    5.442107    0.781041
 H         21.406939    3.488497    1.202375
 C         21.968230    6.668225    0.318470
 H         23.377425    5.214863    1.082687
 H         22.565908    7.558823    0.177627
 C          8.131824   -2.208459   -0.338291
 S          6.685472   -1.215850   -0.164542
 C          7.765902   -3.532185   -0.523147
 C          5.617838   -2.597127   -0.359898
 C          6.370636   -3.745281   -0.534637
 H          8.496250   -4.318228   -0.654869
 C          4.169037   -2.456558   -0.322651
 H          5.928269   -4.721769   -0.696316
 C          3.348770   -3.598433   -0.125686
 C          3.544864   -1.196769   -0.481688
 C          1.976260   -3.471820   -0.099135
 H          3.810365   -4.569698    0.025114
 C          2.164612   -1.054142   -0.452115
 H          4.158179   -0.316301   -0.650157
 C          1.367955   -2.193183   -0.262395
 C          0.917592   -4.565536    0.106006
 H          1.714622   -0.074134   -0.581611
 C         -0.047876   -2.390009   -0.181663
 C         -0.357164   -3.737229    0.029591
 C          1.065608   -5.245080    1.485857
 C          0.971864   -5.624556   -1.017810
 S         -1.463401   -1.396983   -0.275098
 C         -1.721305   -3.994531    0.119828
 H          0.256285   -5.966471    1.643775
 H          2.017615   -5.783831    1.549371
 H          1.032633   -4.508927    2.295135
 H          1.923313   -6.167376   -0.989064
 H          0.162534   -6.352706   -0.894830
 H          0.870167   -5.160936   -2.004080
 C         -2.514773   -2.831809   -0.022394
 H         -2.179696   -4.960283    0.281201
 C         -3.921908   -2.692507    0.012341
 C         -4.554674   -1.412992   -0.156581
 C         -4.820620   -3.810258    0.218712
 C         -5.910525   -1.231762   -0.126562
 H         -3.928500   -0.540926   -0.317424
 C         -6.268025   -3.615223    0.251757
 N         -4.449533   -5.076535    0.393876
 C         -6.847884   -2.299945    0.077696
 H         -6.293063   -0.225298   -0.265183
 N         -6.953064   -4.739308    0.451314
 S         -5.842229   -5.979080    0.590273
 C         -8.245576   -2.062336    0.104786
 S         -8.905210   -0.427954   -0.103033
 C         -9.308462   -2.966172    0.285678
 C        -10.564136   -0.992631    0.048488
 C        -10.571876   -2.373521    0.254470
 H         -9.131039   -4.022667    0.428025
 C        -11.692361   -0.087277   -0.041228
 H        -11.486487   -2.944824    0.364263
 C        -13.004468   -0.543550    0.261065
 C        -11.526075    1.264149   -0.429134
 C        -14.078479    0.316151    0.170384
 H        -13.157504   -1.570991    0.576552
 C        -12.601348    2.138745   -0.522045
 H        -10.533734    1.631338   -0.674230
 C        -13.885039    1.668968   -0.224231
 C        -15.561392    0.030354    0.452965
 H        -12.440062    3.169021   -0.826061
 C        -15.186317    2.291987   -0.220180
 C        -16.167167    1.394752    0.158119
 C        -15.786926   -0.382163    1.925162
 C        -16.118982   -1.055541   -0.494459
 S        -15.832583    3.860377   -0.563994
 C        -17.461585    1.955222    0.178254
 H        -16.856910   -0.505684    2.126739
 H        -15.290469   -1.335113    2.139822
 H        -15.392724    0.373191    2.612225
 H        -15.625119   -2.016776   -0.312935
 H        -17.193605   -1.191280   -0.328488
 H        -15.964871   -0.782603   -1.543176
 C        -17.477604    3.294609   -0.187970
 H        -18.368017    1.429061    0.445042
 C        -18.605957    4.210365   -0.289271
 C        -18.457578    5.531445   -0.689748
 C        -19.961150    3.805249    0.021446
 C        -19.538101    6.450297   -0.797900
 H        -17.467256    5.900883   -0.939176
 C        -21.060132    4.753950   -0.092845
 N        -20.358324    2.594358    0.426218
 C        -20.830900    6.093854   -0.510062
 H        -19.316197    7.463280   -1.120604
 N        -22.252806    4.235515    0.227439
 S        -21.987680    2.667874    0.639396
 H        -21.660803    6.786885   -0.589730
       128
S1: Total Energy = -6568.00280252
 C         18.778307    4.342079    0.128874
 C         18.723385    2.927958    0.071479
 C         16.294511    3.026450    0.089163
 C         17.503848    2.279416    0.058340
 H         19.647596    2.359807    0.016502
 C         15.215807    2.070764    0.055959
 C         17.221592    0.770968   -0.003068
 S         13.486884    2.124077    0.065565
 C         15.699677    0.772470    0.004243
 C         17.792933    0.038247    1.231643
 C         17.781254    0.143732   -1.299667
 C         13.403739    0.341183   -0.000752
 C         14.689549   -0.203182   -0.027285
 H         17.515962   -1.021703    1.208255
 H         18.886837    0.101817    1.246132
 H         17.411011    0.472611    2.160917
 H         18.874721    0.212240   -1.320446
 H         17.507457   -0.915529   -1.360286
 H         17.388329    0.651618   -2.186059
 C         12.124639   -0.322742   -0.018036
 H         14.846984   -1.272210   -0.067648
 C         10.912873    0.385180   -0.003353
 C         11.989679   -1.760515   -0.049659
 C          9.656724   -0.222719   -0.015785
 H         10.936888    1.470539    0.018456
 C         10.676123   -2.398483   -0.061319
 N         12.999611   -2.636319   -0.069666
 C          9.462495   -1.613130   -0.043605
 H          8.789464    0.430642   -0.001865
 N         10.738412   -3.732154   -0.089848
 S         12.336805   -4.147491   -0.101089
 C         17.566494    5.064528    0.160489
 C         16.331356    4.424227    0.137108
 H         17.594737    6.148630    0.223753
 H         15.415080    5.007083    0.165582
 C         20.074104    5.022056    0.159229
 C         21.298765    4.522814    0.552465
 S         20.252078    6.695533   -0.352534
 C         22.362749    5.463495    0.453400
 H         21.429490    3.515261    0.931584
 C         21.953490    6.681831   -0.016870
 H         23.388481    5.243694    0.729221
 H         22.544879    7.571140   -0.188970
 C          8.152277   -2.203056   -0.052749
 S          6.702621   -1.194967   -0.038702
 C          7.780296   -3.550331   -0.069549
 C          5.631500   -2.593792   -0.055990
 C          6.397615   -3.761350   -0.070194
 H          8.515204   -4.342796   -0.082079
 C          4.198325   -2.459089   -0.054991
 H          5.959808   -4.752492   -0.086771
 C          3.362072   -3.614730   -0.012095
 C          3.573133   -1.182099   -0.096269
 C          1.994952   -3.483578   -0.011889
 H          3.811802   -4.601809    0.025441
 C          2.198221   -1.037053   -0.098033
 H          4.190335   -0.289231   -0.132500
 C          1.390106   -2.188248   -0.056333
 C          0.925217   -4.584909    0.034886
 H          1.753500   -0.046848   -0.132653
 C         -0.020666   -2.383981   -0.046587
 C         -0.341241   -3.742601    0.003736
 C          1.020722   -5.410134    1.338194
 C          1.015977   -5.517291   -1.193919
 S         -1.434721   -1.382241   -0.081635
 C         -1.714506   -3.996183    0.014646
 H          0.202475   -6.136774    1.389713
 H          1.966766   -5.961616    1.376049
 H          0.963251   -4.764820    2.220339
 H          1.962086   -6.070046   -1.188305
 H          0.198098   -6.246106   -1.180479
 H          0.954871   -4.949284   -2.127481
 C         -2.489028   -2.825968   -0.027744
 H         -2.180582   -4.971027    0.051178
 C         -3.915752   -2.677417   -0.032116
 C         -4.534603   -1.411766   -0.080043
 C         -4.818181   -3.804848    0.011214
 C         -5.912872   -1.228898   -0.085723
 H         -3.913253   -0.521869   -0.115557
 C         -6.264671   -3.611410    0.005022
 N         -4.454387   -5.090467    0.059812
 C         -6.840209   -2.288413   -0.044061
 H         -6.281361   -0.208297   -0.126119
 N         -6.953697   -4.757173    0.049087
 S         -5.847264   -5.990187    0.095075
 C         -8.259086   -2.058176   -0.049267
 S         -8.912682   -0.415521   -0.083062
 C         -9.312901   -2.972226   -0.028719
 C        -10.575158   -0.988938   -0.076019
 C        -10.584778   -2.379627   -0.043407
 H         -9.139284   -4.038838   -0.008422
 C        -11.700907   -0.075308   -0.099710
 H        -11.498676   -2.962584   -0.044280
 C        -13.026324   -0.564405    0.061926
 C        -11.520089    1.317685   -0.281877
 C        -14.096792    0.303282    0.037548
 H        -13.192807   -1.625933    0.217026
 C        -12.591129    2.200924   -0.305189
 H        -10.517365    1.712513   -0.417293
 C        -13.888355    1.699164   -0.145824
 C        -15.591620   -0.015134    0.194225
 H        -12.417272    3.263534   -0.448889
 C        -15.187670    2.319830   -0.117606
 C        -16.185966    1.380464    0.074472
 C        -15.894789   -0.644773    1.572412
 C        -16.092624   -0.943444   -0.935109
 S        -15.820405    3.925123   -0.258833
 C        -17.479573    1.937313    0.111434
 H        -16.973396   -0.795080    1.694210
 H        -15.404859   -1.620418    1.666628
 H        -15.542860   -0.003346    2.386497
 H        -15.605861   -1.923216   -0.872987
 H        -17.174270   -1.097392   -0.850902
 H        -15.881871   -0.516735   -1.920785
 C        -17.481354    3.317815   -0.052524
 H        -18.397309    1.382390    0.250884
 C        -18.604058    4.242631   -0.070888
 C        -18.436254    5.613232   -0.229375
 C        -19.974990    3.798142    0.074675
 C        -19.511792    6.541891   -0.252943
 H        -17.433123    6.013857   -0.341812
 C        -21.069411    4.759157    0.049173
 N        -20.391128    2.538493    0.239559
 C        -20.819855    6.148616   -0.117925
 H        -19.275237    7.593993   -0.382291
 N        -22.278229    4.200773    0.195166
 S        -22.032587    2.583599    0.351521
 H        -21.646254    6.850184   -0.134487
