       128
S0: Total Energy = -6865.75769171
 C         19.173051    4.217105    0.494265
 C         19.087591    2.819403    0.291769
 C         16.663016    2.970534    0.312046
 C         17.852300    2.203134    0.208499
 H         19.999860    2.239663    0.182124
 C         15.559999    2.042321    0.176660
 C         17.536562    0.715560   -0.008854
 S         13.833032    2.133035    0.186425
 C         16.014789    0.751603   -0.006699
 C         18.085025   -0.152609    1.145874
 C         18.090646    0.212755   -1.360946
 C         13.711974    0.374710   -0.064141
 C         14.976959   -0.194456   -0.143130
 H         17.785799   -1.198401    1.012826
 H         19.179939   -0.115093    1.170701
 H         17.707254    0.192327    2.113597
 H         19.185400    0.259635   -1.370845
 H         17.795595   -0.828799   -1.531367
 H         17.713529    0.817315   -2.191843
 C         12.407891   -0.255861   -0.155738
 H         15.113998   -1.256505   -0.293931
 C         11.225156    0.461325   -0.067265
 C         12.229411   -1.678806   -0.344453
 C          9.955631   -0.138343   -0.153093
 H         11.228526    1.536819    0.074204
 C         10.897576   -2.277204   -0.430390
 N         13.212778   -2.573434   -0.456145
 C          9.689218   -1.487109   -0.333070
 N         10.936666   -3.600549   -0.603450
 S         12.516439   -4.046126   -0.653005
 C         17.979679    4.959980    0.596111
 C         16.729318    4.352390    0.502473
 H         18.031926    6.030927    0.770625
 H         15.826142    4.950196    0.586877
 C         20.486523    4.860715    0.598711
 C         21.688216    4.303643    0.979758
 S         20.715924    6.559396    0.207663
 C         22.778218    5.221257    0.966828
 H         21.784467    3.268794    1.289633
 C         22.409729    6.479021    0.574842
 H         23.792064    4.955844    1.246647
 H         23.025926    7.362749    0.477079
 C          8.353263   -2.055534   -0.415209
 S          6.892774   -1.072429   -0.266711
 C          7.995643   -3.381486   -0.605493
 C          5.845033   -2.458798   -0.474760
 C          6.601040   -3.603135   -0.637201
 H          8.729962   -4.164654   -0.727362
 C          4.387892   -2.326655   -0.455802
 H          6.164961   -4.581593   -0.805568
 C          3.580816   -3.449065   -0.148476
 C          3.756343   -1.097965   -0.740014
 C          2.203557   -3.332784   -0.137524
 H          4.053731   -4.395040    0.100188
 C          2.369812   -0.967132   -0.724033
 H          4.362188   -0.233750   -0.997057
 C          1.588354   -2.085739   -0.424516
 C          1.153188   -4.409972    0.173114
 H          1.911338   -0.008503   -0.949830
 C          0.159175   -2.292984   -0.320505
 C         -0.126826   -3.600928    0.018441
 C          1.310427   -4.954527    1.610559
 C          1.217139   -5.571244   -0.844255
 S         -1.264512   -1.333876   -0.505557
 C         -1.506690   -3.857950    0.137735
 H          0.508698   -5.665835    1.839360
 H          2.267466   -5.476207    1.723864
 H          1.271445   -4.144842    2.346112
 H          2.172077   -6.102943   -0.764611
 H          0.412902   -6.290807   -0.653314
 H          1.112828   -5.203995   -1.870163
 C         -2.294125   -2.737255   -0.111722
 H         -1.942667   -4.812565    0.396009
 C         -3.743150   -2.637985   -0.072720
 C         -4.457219   -1.480417   -0.346316
 C         -4.609099   -3.749763    0.262255
 C         -5.855681   -1.331782   -0.319607
 C         -6.065306   -3.619788    0.299411
 N         -4.193904   -4.981012    0.568680
 C         -6.719297   -2.366697   -0.000134
 H         -6.229617   -0.344846   -0.570633
 N         -6.684174   -4.754068    0.632404
 S         -5.526219   -5.890358    0.876601
 C         -8.161716   -2.196562    0.033733
 S         -8.883865   -0.610526   -0.228794
 C         -9.158907   -3.130233    0.254790
 C        -10.511980   -1.238260   -0.054664
 C        -10.466580   -2.593811    0.205103
 H         -8.942803   -4.173777    0.436625
 C        -11.683080   -0.369955   -0.171984
 H        -11.357330   -3.199482    0.329254
 C        -12.906997   -0.753655    0.427691
 C        -11.626422    0.850895   -0.875648
 C        -14.020346    0.057478    0.312992
 H        -12.956982   -1.678003    0.996010
 C        -12.739656    1.679401   -0.991751
 H        -10.698982    1.146922   -1.357473
 C        -13.940633    1.283192   -0.398905
 C        -15.428459   -0.160871    0.886671
 H        -12.668296    2.612626   -1.543020
 C        -15.253344    1.889108   -0.325927
 C        -16.126265    1.098862    0.394553
 C        -15.404214   -0.228675    2.430434
 C        -16.083672   -1.435979    0.310082
 S        -16.003487    3.335813   -0.904246
 C        -17.423536    1.646170    0.495149
 H        -16.423455   -0.309261    2.824634
 H        -14.840691   -1.105231    2.769085
 H        -14.939601    0.665213    2.858375
 H        -15.531655   -2.328959    0.624127
 H        -17.113853   -1.531794    0.671108
 H        -16.103773   -1.410635   -0.784021
 C        -17.545873    2.867889   -0.152157
 H        -18.256816    1.190624    1.012687
 C        -18.707615    3.737591   -0.267879
 C        -18.646355    4.970796   -0.897544
 C        -20.006569    3.374606    0.264887
 C        -19.774590    5.820535   -1.016853
 H        -17.718971    5.337306   -1.324771
 C        -21.144427    4.275184    0.124593
 N        -20.312515    2.245023    0.908026
 C        -21.018239    5.527896   -0.533904
 N        -22.272457    3.800230    0.665513
 S        -21.907366    2.327282    1.298457
 H        -21.856836    6.203921   -0.643319
 F        -19.570639    6.990983   -1.654313
 F         -3.778091   -0.356723   -0.678922
 F          8.917203    0.723898   -0.043611
       128
T1: Total Energy = -6865.71741020
 C         19.224235    4.146817    0.308163
 C         19.120958    2.743260    0.162836
 C         16.698676    2.923205    0.205704
 C         17.878025    2.138489    0.118780
 H         20.025220    2.149067    0.065507
 C         15.584016    2.003675    0.119319
 C         17.543657    0.647224   -0.035477
 S         13.858788    2.115513    0.142254
 C         16.022568    0.700932   -0.018659
 C         18.095195   -0.179904    1.147645
 C         18.076998    0.083887   -1.371951
 C         13.715055    0.350095   -0.038730
 C         14.973466   -0.236720   -0.108581
 H         17.783234   -1.226742    1.060118
 H         19.190638   -0.153657    1.159215
 H         17.731976    0.208042    2.104589
 H         19.172009    0.117471   -1.395257
 H         17.768419   -0.960187   -1.496789
 H         17.697586    0.658734   -2.222647
 C         12.404803   -0.268244   -0.092997
 H         15.096839   -1.305205   -0.220586
 C         11.230223    0.463584    0.003750
 C         12.209109   -1.693068   -0.252002
 C          9.954995   -0.124045   -0.050456
 H         11.247353    1.541051    0.127582
 C         10.870785   -2.279596   -0.305324
 N         13.181655   -2.599166   -0.363582
 C          9.672426   -1.474526   -0.203066
 N         10.893942   -3.605866   -0.454592
 S         12.468595   -4.068439   -0.521851
 C         18.040360    4.907030    0.394809
 C         16.782479    4.310803    0.340525
 H         18.106710    5.983363    0.525814
 H         15.887107    4.921799    0.412039
 C         20.545709    4.779068    0.370190
 C         21.746382    4.223445    0.756804
 S         20.788118    6.458479   -0.089851
 C         22.845925    5.127318    0.693623
 H         21.835620    3.200465    1.105693
 C         22.485671    6.372981    0.257577
 H         23.860574    4.861542    0.970090
 H         23.110090    7.245090    0.116963
 C          8.331499   -2.028539   -0.256824
 S          6.884239   -1.030146   -0.100483
 C          7.959256   -3.356197   -0.425655
 C          5.818276   -2.411373   -0.271624
 C          6.566711   -3.565972   -0.432504
 H          8.685650   -4.146606   -0.547145
 C          4.369861   -2.270046   -0.237305
 H          6.125083   -4.545240   -0.577573
 C          3.545096   -3.415752   -0.083419
 C          3.748531   -1.003011   -0.357375
 C          2.173176   -3.286536   -0.060386
 H          4.001977   -4.393694    0.033539
 C          2.369405   -0.857884   -0.330837
 H          4.363892   -0.118097   -0.490517
 C          1.568302   -2.001263   -0.184250
 C          1.110898   -4.384289    0.098043
 H          1.922342    0.126940   -0.429459
 C          0.152158   -2.194898   -0.122371
 C         -0.160056   -3.549237    0.038109
 C          1.245030   -5.110692    1.455314
 C          1.173278   -5.404548   -1.060576
 S         -1.256591   -1.193421   -0.196071
 C         -1.523232   -3.803813    0.103208
 H          0.433372   -5.835795    1.580714
 H          2.195658   -5.652893    1.509067
 H          1.205505   -4.402635    2.289019
 H          2.123650   -5.949572   -1.041776
 H          0.361892   -6.135024   -0.969266
 H          1.080977   -4.907581   -2.031412
 C         -2.317210   -2.633243   -0.007177
 H         -1.983123   -4.773847    0.224556
 C         -3.731209   -2.545517    0.018932
 C         -4.452654   -1.311028   -0.096685
 C         -4.599952   -3.703209    0.165371
 C         -5.808721   -1.165827   -0.078493
 C         -6.056690   -3.572614    0.187233
 N         -4.181157   -4.958815    0.290142
 C         -6.695672   -2.280574    0.063920
 H         -6.197731   -0.158946   -0.178700
 N         -6.694093   -4.732988    0.328132
 S         -5.534338   -5.928496    0.428054
 C         -8.103030   -2.105655    0.080843
 S         -8.828348   -0.493306   -0.057810
 C         -9.126761   -3.062260    0.199720
 C        -10.463790   -1.134617    0.039615
 C        -10.414452   -2.522798    0.176718
 H         -8.906543   -4.116076    0.293496
 C        -11.629028   -0.274314   -0.021665
 H        -11.304562   -3.137446    0.245101
 C        -12.926212   -0.806195    0.212963
 C        -11.514047    1.106395   -0.313991
 C        -14.035116    0.010931    0.150659
 H        -13.042069   -1.858510    0.453156
 C        -12.624647    1.938462   -0.376855
 H        -10.533585    1.532595   -0.505457
 C        -13.892662    1.394577   -0.145487
 C        -15.509780   -0.358704    0.371576
 H        -12.501956    2.993038   -0.606291
 C        -15.220407    1.959323   -0.132709
 C        -16.169121    0.995721    0.156891
 C        -15.751640   -0.886178    1.803887
 C        -15.994084   -1.396408   -0.666055
 S        -15.926450    3.518644   -0.383319
 C        -17.486322    1.497244    0.181537
 H        -16.819278   -1.071064    1.967082
 H        -15.217123   -1.829418    1.962797
 H        -15.408853   -0.166216    2.553681
 H        -15.461270   -2.345520   -0.539761
 H        -17.065112   -1.590742   -0.539984
 H        -15.826895   -1.041687   -1.687964
 C        -17.552230    2.858002   -0.091028
 H        -18.374413    0.915058    0.386511
 C        -18.716010    3.728163   -0.157344
 C        -18.611594    5.078628   -0.454700
 C        -20.062547    3.245704    0.082564
 C        -19.740859    5.931907   -0.519959
 H        -17.648205    5.537013   -0.651228
 C        -21.200660    4.153768    0.006314
 N        -20.414612    1.993621    0.384418
 C        -21.028366    5.529713   -0.303030
 N        -22.375092    3.561397    0.252086
 S        -22.049947    1.978223    0.554882
 H        -21.866761    6.212235   -0.362054
 F        -19.492706    7.222961   -0.819276
 F         -3.722381   -0.176419   -0.238289
 F          8.925971    0.748180    0.061220
       128
S1: Total Energy = -6865.70049392
 C         19.210281    4.159768    0.149977
 C         19.105942    2.749477    0.074475
 C         16.682435    2.933202    0.103574
 C         17.864076    2.144319    0.058032
 H         20.009338    2.149953    0.008331
 C         15.570493    2.016370    0.061060
 C         17.529410    0.647545   -0.021510
 S         13.845366    2.131730    0.076179
 C         16.008550    0.702307   -0.009020
 C         18.078686   -0.119923    1.202124
 C         18.062920    0.017476   -1.327767
 C         13.699401    0.355150   -0.011958
 C         14.964575   -0.235764   -0.049584
 H         17.765623   -1.169396    1.166156
 H         19.174088   -0.093774    1.213388
 H         17.714740    0.315448    2.138117
 H         19.157988    0.047917   -1.350864
 H         17.752039   -1.030710   -1.400488
 H         17.685691    0.549922   -2.206534
 C         12.398755   -0.262003   -0.032175
 H         15.084344   -1.309058   -0.103718
 C         11.217334    0.488663   -0.007459
 C         12.206451   -1.693948   -0.076194
 C          9.953978   -0.094340   -0.020984
 H         11.242649    1.572437    0.023168
 C         10.868988   -2.283221   -0.087778
 N         13.182806   -2.604350   -0.108309
 C          9.671624   -1.466367   -0.058258
 N         10.886755   -3.616209   -0.128335
 S         12.468725   -4.089693   -0.150349
 C         18.024747    4.924097    0.197320
 C         16.767907    4.327902    0.171055
 H         18.091163    6.005532    0.275161
 H         15.872744    4.941871    0.212267
 C         20.529324    4.793650    0.182059
 C         21.737587    4.245895    0.561007
 S         20.763370    6.466640   -0.307965
 C         22.833712    5.149578    0.467977
 H         21.834534    3.229153    0.925372
 C         22.465094    6.387908    0.016491
 H         23.852600    4.889928    0.734240
 H         23.086543    7.258017   -0.147718
 C          8.341516   -2.013335   -0.065342
 S          6.889047   -1.007680   -0.038833
 C          7.968463   -3.363690   -0.090057
 C          5.824268   -2.407383   -0.062306
 C          6.588719   -3.576650   -0.087009
 H          8.702473   -4.155851   -0.110906
 C          4.390964   -2.277219   -0.055512
 H          6.153780   -4.568816   -0.108617
 C          3.558150   -3.435775   -0.016566
 C          3.762387   -1.000650   -0.087326
 C          2.191105   -3.308374   -0.011292
 H          4.010775   -4.421658    0.013778
 C          2.387563   -0.859560   -0.084172
 H          4.376941   -0.105998   -0.120334
 C          1.582539   -2.013894   -0.046836
 C          1.124228   -4.412200    0.032477
 H          1.939655    0.129271   -0.111827
 C          0.171942   -2.210993   -0.035355
 C         -0.142767   -3.570988    0.007704
 C          1.224035   -5.242820    1.332093
 C          1.214352   -5.339082   -1.200488
 S         -1.241344   -1.210646   -0.063260
 C         -1.514051   -3.826917    0.018460
 H          0.407015   -5.970881    1.382005
 H          2.170963   -5.793026    1.365373
 H          1.167381   -4.601457    2.217181
 H          2.161061   -5.890763   -1.198569
 H          0.397398   -6.068903   -1.188601
 H          1.150951   -4.767257   -2.131574
 C         -2.293870   -2.657091   -0.016763
 H         -1.975439   -4.803390    0.049678
 C         -3.728726   -2.561029   -0.019044
 C         -4.432546   -1.344141   -0.055859
 C         -4.599142   -3.718615    0.014738
 C         -5.810181   -1.192776   -0.062545
 C         -6.053991   -3.586353    0.008196
 N         -4.186079   -4.988055    0.054138
 C         -6.688550   -2.289922   -0.031629
 H         -6.185058   -0.175856   -0.095785
 N         -6.695119   -4.758861    0.042886
 S         -5.540991   -5.946488    0.081029
 C         -8.114402   -2.118505   -0.038852
 S         -8.832997   -0.503694   -0.055886
 C         -9.129439   -3.075437   -0.034046
 C        -10.470291   -1.144403   -0.064353
 C        -10.424134   -2.534661   -0.048036
 H         -8.913099   -4.134368   -0.026248
 C        -11.632500   -0.276477   -0.083648
 H        -11.313738   -3.153759   -0.061227
 C        -12.936347   -0.820171    0.075825
 C        -11.508033    1.123217   -0.260098
 C        -14.041522    0.003551    0.054557
 H        -13.059398   -1.888205    0.226767
 C        -12.614202    1.962306   -0.280273
 H        -10.522325    1.559180   -0.394365
 C        -13.889614    1.407092   -0.123418
 C        -15.522105   -0.376690    0.208609
 H        -12.483644    3.031543   -0.420183
 C        -15.213562    1.974271   -0.094218
 C        -16.173062    0.993848    0.093110
 C        -15.801373   -1.022886    1.584178
 C        -15.982651   -1.321254   -0.924477
 S        -15.909589    3.552813   -0.230287
 C        -17.487539    1.497481    0.130609
 H        -16.873357   -1.216161    1.703740
 H        -15.273580   -1.978814    1.675355
 H        -15.476077   -0.371072    2.401094
 H        -15.453703   -2.279082   -0.865668
 H        -17.056545   -1.522432   -0.840961
 H        -15.790458   -0.882153   -1.908510
 C        -17.544133    2.877926   -0.028566
 H        -18.382195    0.905390    0.267153
 C        -18.701865    3.755271   -0.044916
 C        -18.584291    5.130512   -0.195893
 C        -20.057052    3.257169    0.094434
 C        -19.708649    5.990013   -0.213889
 H        -17.613336    5.601676   -0.305636
 C        -21.190779    4.174442    0.071298
 N        -20.421282    1.982316    0.250545
 C        -21.004715    5.573644   -0.087063
 N        -22.374583    3.565982    0.210683
 S        -22.063051    1.957080    0.358473
 H        -21.839124    6.263323   -0.105546
 F        -19.449952    7.304932   -0.367643
 F         -3.717070   -0.191703   -0.090267
 F          8.914360    0.773916    0.006270
