       114
S0: Total Energy = -5252.76816845
 C        -18.561485   -2.525223    0.667101
 C        -18.765723   -1.204729    0.372190
 C        -17.554233   -0.498890    0.143848
 C        -16.414711   -1.275663    0.269074
 S        -16.880143   -2.932588    0.681742
 H        -17.511446    0.549301   -0.113120
 C        -15.023971   -0.871199    0.072151
 C        -14.662984    0.424311   -0.459146
 N        -15.527800    1.377240   -0.813516
 S        -14.656144    2.671265   -1.324169
 N        -13.144110    2.066285   -1.115429
 C        -13.269798    0.826042   -0.639348
 C        -12.170756   -0.066092   -0.340456
 C        -12.567090   -1.307889    0.140864
 C        -13.936001   -1.679102    0.376819
 C        -10.777663    0.319172   -0.538564
 C        -10.287443    1.457378   -1.159634
 C         -8.877481    1.551585   -1.168020
 C         -8.242663    0.493766   -0.550162
 S         -9.422979   -0.647765    0.056340
 H        -10.937459    2.199171   -1.599995
 H        -19.300739   -3.284966    0.886245
 H        -19.745850   -0.743133    0.318211
 H         -8.344165    2.365247   -1.647635
 C         -6.803603    0.273449   -0.378227
 C         -5.930375    1.375496   -0.373121
 C         -6.278010   -1.033888   -0.217930
 C         -4.563595    1.145535   -0.227114
 H         -6.325584    2.382543   -0.450637
 C         -4.917165   -1.254671   -0.054247
 H         -6.953850   -1.883209   -0.243610
 C         -4.037433   -0.165308   -0.055554
 H         -4.541495   -2.267103    0.067165
 C         -2.330263    1.371667    0.006449
 C         -2.609659   -0.020903    0.091599
 C         -1.032787    1.868790    0.113332
 C         -1.549176   -0.915168    0.282249
 C          0.023424    0.962379    0.312916
 H         -0.828872    2.930464    0.025934
 C         -0.254710   -0.425982    0.393092
 H         -1.734579   -1.983455    0.354900
 H          0.561024   -1.120121    0.570559
 N         -3.518471    2.060866   -0.204586
 C         -3.655103    3.500678   -0.301102
 H         -4.508128    3.744715   -0.938892
 H         -3.801812    3.966366    0.681592
 H         -2.759808    3.923614   -0.763104
 C          1.393576    1.467186    0.442888
 C          1.809617    2.715788    0.857267
 S          2.777528    0.468269    0.053757
 C          3.213266    2.878257    0.865972
 H          1.125024    3.492591    1.180458
 C          3.918643    1.754989    0.462438
 H          3.706013    3.792023    1.164118
 C          5.363411    1.598981    0.337768
 C          6.276723    2.712126    0.478353
 C          5.989587    0.384441    0.081538
 N          5.918024    3.972340    0.731122
 C          7.724413    2.543264    0.373378
 C          7.408326    0.230608   -0.084305
 S          7.291326    4.866575    0.834205
 N          8.394628    3.682227    0.558278
 C          8.326861    1.261826    0.076327
 C          9.769850    1.087024   -0.043427
 C         10.750954    2.066539   -0.050443
 S         10.535308   -0.502486   -0.158298
 C         12.068914    1.566613   -0.152009
 H         10.515298    3.118794    0.012510
 C         12.141305    0.190598   -0.220766
 H         12.940942    2.209555   -0.204825
 C         13.336246   -0.652690   -0.326513
 C         14.565480   -0.174860    0.160224
 C         13.271176   -1.942955   -0.910459
 C         15.693847   -0.984542    0.038176
 H         14.617900    0.792667    0.647817
 C         14.396056   -2.751042   -1.012856
 H         12.324069   -2.299034   -1.304251
 C         15.626597   -2.283184   -0.537781
 N         17.001843   -0.729137    0.429568
 H         14.317694   -3.736399   -1.464527
 C         16.960767   -2.835413   -0.472614
 C         17.777383   -1.846456    0.142421
 C         17.462153    0.468422    1.103371
 C         17.529329   -4.052651   -0.868230
 C         19.139205   -2.065326    0.374505
 H         16.884821    1.328904    0.756143
 H         17.362550    0.391429    2.193570
 H         18.511457    0.646505    0.856241
 C         18.886304   -4.271176   -0.645080
 H         16.918174   -4.817334   -1.340709
 C         19.678623   -3.285706   -0.029088
 H         19.761470   -1.318310    0.857652
 H         19.338720   -5.211794   -0.945878
 H         20.734428   -3.478625    0.140951
 O          7.867007   -1.032647   -0.360931
 O          5.219927   -0.739282   -0.083789
 O        -11.608486   -2.232102    0.471253
 O        -14.158876   -2.936290    0.878793
 C          7.652897   -1.485614   -1.713924
 H          6.584240   -1.546623   -1.932290
 H          8.149058   -0.814187   -2.422615
 H          8.105080   -2.476846   -1.769814
 C          5.256709   -1.681477    1.008425
 H          4.913947   -1.205112    1.932987
 H          4.569573   -2.482500    0.732075
 H          6.265992   -2.079081    1.136968
 C        -11.472102   -3.337344   -0.446108
 H        -12.394384   -3.921829   -0.480777
 H        -11.214267   -2.971857   -1.445673
 H        -10.655441   -3.946833   -0.056593
 C        -13.863964   -3.104047    2.281244
 H        -14.470756   -2.418276    2.881846
 H        -14.131541   -4.134516    2.519197
 H        -12.801187   -2.937590    2.471367
       114
T1: Total Energy = -5252.72326947
 C        -18.491810   -2.659978    0.718802
 C        -18.718291   -1.323208    0.533537
 C        -17.521456   -0.586729    0.326407
 C        -16.370789   -1.356620    0.358187
 S        -16.806815   -3.046247    0.653813
 H        -17.497092    0.478697    0.150871
 C        -14.990857   -0.920678    0.153901
 C        -14.658697    0.417154   -0.283232
 N        -15.543363    1.383298   -0.538853
 S        -14.700624    2.724877   -0.968531
 N        -13.176792    2.125469   -0.847607
 C        -13.275503    0.850225   -0.467383
 C        -12.159106   -0.048561   -0.269873
 C        -12.528871   -1.330774    0.118366
 C        -13.886337   -1.736549    0.362894
 C        -10.775890    0.369199   -0.470587
 C        -10.313607    1.568669   -0.990507
 C         -8.905793    1.678413   -1.031167
 C         -8.244032    0.570959   -0.540897
 S         -9.396597   -0.637071   -0.014509
 H        -10.982570    2.343111   -1.335977
 H        -19.216492   -3.443607    0.899074
 H        -19.704289   -0.871209    0.543666
 H         -8.394087    2.541565   -1.442948
 C         -6.799668    0.349358   -0.436548
 C         -5.932244    1.453695   -0.362774
 C         -6.262313   -0.964044   -0.409677
 C         -4.560467    1.222795   -0.282443
 H         -6.334742    2.460397   -0.338481
 C         -4.897012   -1.188283   -0.312048
 H         -6.934814   -1.812701   -0.487646
 C         -4.022524   -0.095169   -0.245992
 H         -4.512236   -2.204263   -0.293389
 C         -2.322086    1.442996   -0.103530
 C         -2.594614    0.044967   -0.134706
 C         -1.027379    1.937235    0.010172
 C         -1.523638   -0.856894   -0.059972
 C          0.045011    1.022826    0.089011
 H         -0.838723    3.004624    0.021976
 C         -0.230426   -0.372479    0.049275
 H         -1.702838   -1.928354   -0.079331
 H          0.590832   -1.077843    0.127856
 N         -3.519572    2.139835   -0.212233
 C         -3.662467    3.582187   -0.175421
 H         -4.554271    3.874524   -0.734463
 H         -3.746819    3.960017    0.851149
 H         -2.798608    4.048915   -0.655286
 C          1.407889    1.512841    0.212960
 C          1.834344    2.802199    0.529493
 S          2.794288    0.464674   -0.042087
 C          3.219380    2.954805    0.575266
 H          1.150777    3.614524    0.749629
 C          3.946723    1.777731    0.294822
 H          3.720986    3.881144    0.811660
 C          5.359141    1.621461    0.247213
 C          6.272480    2.734563    0.425764
 C          5.995857    0.348331    0.007011
 N          5.904907    3.989800    0.674408
 C          7.720360    2.555393    0.349959
 C          7.362899    0.188989   -0.114211
 S          7.297995    4.904618    0.807287
 N          8.405737    3.680571    0.543426
 C          8.311853    1.258308    0.082891
 C          9.719290    1.056417    0.032606
 C         10.733435    2.030598    0.147312
 S         10.482934   -0.540366   -0.149696
 C         12.031466    1.522774    0.084784
 H         10.495318    3.077233    0.263506
 C         12.099630    0.140615   -0.078448
 H         12.910145    2.156616    0.129440
 C         13.287116   -0.694140   -0.180222
 C         14.539085   -0.183905    0.222168
 C         13.207029   -2.024318   -0.675950
 C         15.661595   -0.998588    0.110154
 H         14.614344    0.814374    0.638460
 C         14.328798   -2.832810   -0.773704
 H         12.247231   -2.411794   -1.003003
 C         15.576874   -2.333069   -0.378960
 N         16.983435   -0.717685    0.431430
 H         14.236826   -3.845281   -1.157261
 C         16.912099   -2.877480   -0.332938
 C         17.749776   -1.850060    0.184912
 C         17.467192    0.522377    1.005389
 C         17.468194   -4.117864   -0.673936
 C         19.120518   -2.053188    0.375359
 H         16.875891    1.357968    0.622900
 H         17.409063    0.518334    2.101111
 H         18.505857    0.682182    0.706750
 C         18.832949   -4.320130   -0.492378
 H         16.840798   -4.910986   -1.072136
 C         19.646223   -3.296294    0.028003
 H         19.759598   -1.277207    0.785054
 H         19.276690   -5.277141   -0.751079
 H         20.708508   -3.477714    0.167072
 O          7.861098   -1.064504   -0.388009
 O          5.183431   -0.749763   -0.160655
 O        -11.550944   -2.265579    0.344774
 O        -14.082044   -3.031442    0.771606
 C          7.656400   -1.523400   -1.738499
 H          6.590086   -1.644717   -1.943780
 H          8.101405   -0.822042   -2.452542
 H          8.164968   -2.486654   -1.806596
 C          5.207541   -1.702641    0.920139
 H          4.926262   -1.219681    1.862155
 H          4.467730   -2.462979    0.663743
 H          6.197924   -2.155199    1.009305
 C        -11.437343   -3.300118   -0.654961
 H        -12.352085   -3.895779   -0.694760
 H        -11.226031   -2.859792   -1.635068
 H        -10.596912   -3.921885   -0.343293
 C        -13.742188   -3.304366    2.147247
 H        -14.334012   -2.672247    2.817574
 H        -13.995660   -4.352400    2.312779
 H        -12.675059   -3.143665    2.316899
       114
S1: Total Energy = -5252.70189305
 C        -18.385959   -2.965115    0.495221
 C        -18.630294   -1.639498    0.734093
 C        -17.453385   -0.847166    0.686941
 C        -16.298452   -1.564185    0.416931
 S        -16.707776   -3.274904    0.215447
 H        -17.444795    0.221966    0.839634
 C        -14.938026   -1.054829    0.274088
 C        -14.638589    0.360176    0.263388
 N        -15.540195    1.336722    0.385731
 S        -14.731396    2.765260    0.350713
 N        -13.201233    2.192961    0.176098
 C        -13.272378    0.861346    0.137205
 C        -12.144450   -0.029166   -0.032466
 C        -12.485225   -1.379416   -0.048063
 C        -13.819288   -1.871540    0.143086
 C        -10.781395    0.458856   -0.177900
 C        -10.356060    1.776065   -0.310120
 C         -8.959468    1.925902   -0.401800
 C         -8.259269    0.732472   -0.340897
 S         -9.374766   -0.608932   -0.164423
 H        -11.049345    2.603535   -0.341728
 H        -19.094497   -3.783218    0.473605
 H        -19.615807   -1.234946    0.938039
 H         -8.481878    2.889543   -0.539807
 C         -6.818047    0.527358   -0.405921
 C         -5.945512    1.609283   -0.170135
 C         -6.274149   -0.754800   -0.702512
 C         -4.574835    1.392218   -0.248114
 H         -6.342598    2.581964    0.096809
 C         -4.909168   -0.969520   -0.765275
 H         -6.948103   -1.581875   -0.902275
 C         -4.030750    0.103179   -0.536282
 H         -4.522530   -1.958439   -0.994556
 C         -2.330350    1.609156   -0.205649
 C         -2.607783    0.240743   -0.510013
 C         -1.034700    2.086703   -0.084200
 C         -1.531169   -0.642581   -0.705772
 C          0.045670    1.192773   -0.283133
 H         -0.847627    3.122389    0.173274
 C         -0.237545   -0.172270   -0.594859
 H         -1.712582   -1.687189   -0.942313
 H          0.586134   -0.860329   -0.755371
 N         -3.533490    2.291146   -0.066904
 C         -3.676251    3.690891    0.285378
 H         -4.591565    4.087967   -0.159821
 H         -3.715342    3.837366    1.371729
 H         -2.833914    4.256861   -0.119088
 C          1.407756    1.661292   -0.167048
 C          1.858813    2.964757    0.042879
 S          2.782177    0.568085   -0.281224
 C          3.248080    3.090243    0.107416
 H          1.194682    3.816326    0.138679
 C          3.946348    1.881026   -0.043646
 H          3.772153    4.022814    0.254052
 C          5.373642    1.686638   -0.040764
 C          6.296742    2.794898    0.049123
 C          5.967949    0.402455   -0.131233
 N          5.935450    4.085147    0.158407
 C          7.730501    2.582841    0.039181
 C          7.353523    0.202257   -0.189920
 S          7.353076    4.973755    0.240699
 N          8.450866    3.713872    0.138234
 C          8.293962    1.256977   -0.079890
 C          9.717359    1.030012   -0.078710
 C         10.736782    1.990960   -0.055543
 S         10.449320   -0.585116   -0.061154
 C         12.031758    1.458671   -0.033157
 H         10.510784    3.046870   -0.059571
 C         12.078449    0.068310   -0.034232
 H         12.918732    2.082439   -0.040700
 C         13.249527   -0.792032   -0.017410
 C         14.517850   -0.249253    0.285221
 C         13.142744   -2.183484   -0.298517
 C         15.623944   -1.091088    0.287257
 H         14.617184    0.800365    0.537261
 C         14.248611   -3.017246   -0.282411
 H         12.172115   -2.601177   -0.546643
 C         15.511683   -2.484922    0.013820
 N         16.955418   -0.786774    0.542684
 H         14.134278   -4.075422   -0.501125
 C         16.836735   -3.038242    0.126760
 C         17.699669   -1.956685    0.466016
 C         17.464889    0.520138    0.909041
 C         17.368173   -4.327425   -0.022551
 C         19.069778   -2.152804    0.666634
 H         16.900004    1.294548    0.383809
 H         17.394558    0.699884    1.989140
 H         18.510455    0.602462    0.603949
 C         18.731754   -4.523012    0.170019
 H         16.721932   -5.161611   -0.282577
 C         19.569723   -3.444467    0.511686
 H         19.728075   -1.334094    0.939764
 H         19.156523   -5.516457    0.059141
 H         20.631154   -3.621160    0.662664
 O          7.819816   -1.089048   -0.313640
 O          5.144811   -0.698796   -0.213556
 O        -11.490512   -2.311384   -0.195115
 O        -13.986941   -3.233111    0.134881
 C          7.656411   -1.672129   -1.620277
 H          6.595980   -1.772481   -1.864835
 H          8.162248   -1.063394   -2.377732
 H          8.124685   -2.656929   -1.570120
 C          5.117291   -1.533038    0.961080
 H          4.807457   -0.951109    1.835959
 H          4.378495   -2.310588    0.758404
 H          6.098252   -1.981443    1.134768
 C        -11.451802   -2.986252   -1.471026
 H        -12.365270   -3.564497   -1.625497
 H        -11.318111   -2.260346   -2.279853
 H        -10.588085   -3.651105   -1.427515
 C        -13.549217   -3.918559    1.327285
 H        -14.086767   -3.539360    2.202654
 H        -13.796286   -4.969660    1.172145
 H        -12.471627   -3.800879    1.462620
