       108
S0: Total Energy = -4917.41649570
 C        -18.479576    4.413671   -1.268096
 C        -18.985752    3.264536   -0.725669
 C        -17.975458    2.340989   -0.336183
 C        -16.690195    2.784304   -0.581714
 S        -16.747686    4.389828   -1.313606
 H        -18.177309    1.377937    0.111504
 C        -15.411795    2.130587   -0.325492
 C        -15.308547    0.831701    0.295050
 N        -16.335519    0.077586    0.700012
 S        -15.708916   -1.300680    1.333075
 N        -14.110874   -0.994331    1.118163
 C        -14.011465    0.206651    0.540292
 C        -12.779173    0.862657    0.172330
 C        -12.940932    2.108078   -0.417707
 C        -14.196309    2.710439   -0.657278
 C        -11.471485    0.265354    0.398094
 C        -11.127710   -0.878068    1.095654
 C         -9.736689   -1.139877    1.118834
 C         -8.975496   -0.210888    0.439590
 S        -10.017160    1.015385   -0.257898
 H        -11.865162   -1.498995    1.585142
 H        -19.014863    5.275159   -1.644578
 H        -20.047435    3.078008   -0.605654
 H         -9.303036   -1.978502    1.652437
 C         -7.522109   -0.171238    0.260286
 C         -6.778038   -1.368307    0.348877
 C         -6.848062    1.040619    0.009677
 C         -5.391858   -1.357025    0.191911
 H         -7.317515   -2.286293    0.529529
 C         -5.465098    1.071044   -0.136834
 H         -7.410251    1.968687   -0.040170
 C         -4.739983   -0.115992   -0.039189
 H         -4.959521    2.017065   -0.310981
 C         -3.059747   -1.737147    0.059917
 C         -3.306972   -0.350598   -0.126544
 C         -1.747341   -2.202639   -0.025196
 C         -2.261668    0.541954   -0.361080
 C         -0.681364   -1.309369   -0.270808
 H         -1.510766   -3.248494    0.103775
 C         -0.957332    0.063490   -0.429169
 H         -2.458405    1.600891   -0.505234
 H         -0.145853    0.754726   -0.637831
 C         -4.566798   -3.761448    0.484968
 H        -14.186513    3.689236   -1.127708
 H        -12.061677    2.672635   -0.713507
 C          0.686051   -1.826263   -0.365314
 C          1.108496   -3.097014   -0.697818
 S          2.073663   -0.808439   -0.026938
 C          2.514660   -3.260083   -0.694527
 H          0.423487   -3.892018   -0.971325
 C          3.211692   -2.113160   -0.360574
 H          3.013592   -4.186969   -0.941263
 C          4.645869   -1.886935   -0.267713
 C          5.614143   -2.950810   -0.390098
 C          5.192523   -0.629451   -0.050195
 N          5.331495   -4.240196   -0.599426
 C          7.047703   -2.690063   -0.288087
 C          6.578002   -0.378022    0.052897
 H          4.530775    0.226363    0.045163
 S          6.759034   -5.048077   -0.664063
 N          7.789905   -3.792716   -0.427674
 C          7.555385   -1.357684   -0.059754
 H          6.877192    0.650477    0.232038
 C          8.976459   -1.062184    0.038394
 C         10.062173   -1.918897    0.048113
 S          9.540102    0.603696    0.169964
 C         11.310730   -1.262751    0.170327
 H          9.950525   -2.992119   -0.019818
 C         11.220850    0.111244    0.255859
 H         12.254304   -1.794516    0.226047
 C         12.299301    1.094693    0.386523
 C         13.591215    0.775199   -0.085448
 C         12.076115    2.351780    0.981585
 C         14.637525    1.690626    0.032498
 H         13.735629   -0.190360   -0.547663
 C         13.113171    3.269503    1.120631
 H         11.090220    2.597811    1.365635
 C         14.385879    2.940578    0.657596
 H         12.927859    4.226739    1.600578
 C         15.629906    3.700655    0.703716
 C         16.659734    2.917909    0.118282
 C         16.733738    0.587538   -0.934098
 C         15.874447    4.983718    1.192607
 C         17.938699    3.477653    0.002670
 C         17.162092    5.512889    1.093678
 H         15.073322    5.567774    1.638348
 C         18.180740    4.764400    0.496151
 H         18.752369    2.948815   -0.474811
 H         17.370083    6.510539    1.470565
 H         19.177971    5.186743    0.405997
 C         16.081957    1.619750   -0.329910
 C         -4.362002   -2.432104    0.268515
 C         18.236900    0.544660   -1.088044
 H         18.571517   -0.484667   -1.249582
 H         18.574039    1.129249   -1.956445
 H         18.757295    0.929304   -0.207355
 C         16.016984   -0.613880   -1.507988
 H         15.736659   -1.333812   -0.725464
 H         15.105683   -0.337045   -2.045016
 H         16.667116   -1.144474   -2.209974
 C         -3.435095   -4.738049    0.712169
 H         -2.944906   -5.019512   -0.231003
 H         -2.666228   -4.334740    1.376955
 H         -3.812271   -5.660579    1.162695
 C         -5.945120   -4.382388    0.518576
 H         -6.455163   -4.189621    1.473398
 H         -6.588772   -4.006190   -0.281539
 H         -5.877461   -5.468250    0.406624
       108
T1: Total Energy = -4917.37459721
 C         18.223604    4.926099    0.581729
 C         18.776346    3.679087    0.684755
 C         17.815600    2.634373    0.581463
 C         16.521518    3.083148    0.400516
 S         16.507873    4.847717    0.354031
 H         18.058512    1.582448    0.637421
 C         15.282237    2.327445    0.259278
 C         15.248652    0.885898    0.199644
 N         16.311792    0.078263    0.268654
 S         15.760945   -1.463585    0.158509
 N         14.152883   -1.166393    0.018237
 C         13.990218    0.159713    0.051933
 C         12.728045    0.854405   -0.040688
 C         12.822973    2.237447    0.020976
 C         14.040565    2.938812    0.167723
 C         11.456690    0.160980   -0.183505
 C         11.198420   -1.180141   -0.401881
 C          9.821475   -1.489653   -0.506217
 C          8.985170   -0.400328   -0.368594
 S          9.935783    1.047005   -0.089806
 H         11.988527   -1.912241   -0.494989
 H         18.716410    5.888294    0.623420
 H         19.837145    3.506269    0.830306
 H          9.456099   -2.489896   -0.711046
 C          7.522771   -0.355869   -0.421168
 C          6.780386   -1.523015   -0.135227
 C          6.838216    0.829243   -0.761192
 C          5.386774   -1.509539   -0.187747
 H          7.325101   -2.415310    0.135701
 C          5.450309    0.856845   -0.831383
 H          7.402179    1.725854   -1.001471
 C          4.727372   -0.304629   -0.555387
 H          4.940025    1.773669   -1.113782
 C          3.055242   -1.905629   -0.242333
 C          3.296497   -0.545130   -0.581301
 C          1.739857   -2.348577   -0.136156
 C          2.239728    0.327598   -0.849608
 C          0.657193   -1.476766   -0.412919
 H          1.514704   -3.351701    0.193842
 C          0.934525   -0.138286   -0.775815
 H          2.430656    1.363968   -1.114229
 H          0.116806    0.538125   -1.006689
 C          4.576195   -3.875735    0.351695
 H         13.978706    4.022311    0.208176
 H         11.918891    2.834647   -0.051680
 C         -0.706899   -1.965028   -0.314812
 C         -1.153565   -3.283955   -0.218046
 S         -2.082493   -0.871236   -0.303628
 C         -2.540081   -3.426100   -0.142921
 H         -0.478775   -4.132249   -0.227729
 C         -3.244630   -2.207748   -0.179345
 H         -3.056940   -4.372719   -0.074049
 C         -4.639894   -1.967200   -0.130462
 C         -5.618528   -3.026647   -0.002119
 C         -5.172711   -0.633057   -0.207167
 N         -5.340972   -4.325674    0.084734
 C         -7.047323   -2.728087    0.044803
 C         -6.510060   -0.353876   -0.164468
 H         -4.480373    0.196964   -0.307987
 S         -6.798282   -5.136012    0.218272
 N         -7.815255   -3.808701    0.165979
 C         -7.526297   -1.364290   -0.037050
 H         -6.817582    0.684971   -0.232533
 C         -8.901221   -1.025923    0.002456
 C        -10.030326   -1.859562    0.114058
 S         -9.437766    0.663560   -0.092215
 C        -11.245777   -1.173671    0.118432
 H         -9.932143   -2.933671    0.182624
 C        -11.134416    0.213953    0.010596
 H        -12.200288   -1.682735    0.185668
 C        -12.190814    1.210864   -0.021452
 C        -13.534236    0.827234    0.217997
 C        -11.910006    2.569590   -0.293469
 C        -14.558770    1.769365    0.198069
 H        -13.741579   -0.213726    0.413447
 C        -12.924977    3.515739   -0.341751
 H        -10.888246    2.881764   -0.488609
 C        -14.242681    3.122333   -0.104318
 H        -12.688736    4.550949   -0.572166
 C        -15.473168    3.898963   -0.121879
 C        -16.561325    3.029003    0.157068
 C        -16.748381    0.528578    0.660731
 C        -15.664192    5.263767   -0.342771
 C        -17.847003    3.577990    0.246142
 C        -16.956015    5.785645   -0.277102
 H        -14.819098    5.913091   -0.556297
 C        -18.034236    4.946262    0.022273
 H        -18.708840    2.975882    0.499605
 H        -17.123568    6.845513   -0.447376
 H        -19.036650    5.360517    0.088572
 C        -16.035046    1.652526    0.371860
 C          4.362807   -2.572538    0.017118
 C        -18.258967    0.486794    0.632444
 H        -18.607037   -0.545831    0.533006
 H        -18.694039    0.881951    1.561928
 H        -18.676169    1.060310   -0.199075
 C        -16.099402   -0.784037    1.036987
 H        -15.746876   -1.332482    0.151343
 H        -15.246010   -0.649813    1.707075
 H        -16.820538   -1.431604    1.544589
 C          3.480784   -4.916760    0.342902
 H          2.895729   -4.899207    1.273995
 H          2.786373   -4.785017   -0.490730
 H          3.913117   -5.918563    0.260404
 C          5.931704   -4.406346    0.759595
 H          6.578496   -4.582019   -0.112103
 H          6.459352   -3.724749    1.432300
 H          5.824995   -5.365102    1.275364
       108
S1: Total Energy = -4917.35211866
 C        -18.269717    4.895701   -0.272083
 C        -18.827699    3.646033   -0.287282
 C        -17.861772    2.604705   -0.220847
 C        -16.556521    3.057586   -0.155570
 S        -16.541867    4.823701   -0.175319
 H        -18.106280    1.551725   -0.220731
 C        -15.312022    2.306442   -0.080697
 C        -15.271775    0.865740   -0.011058
 N        -16.336002    0.056362   -0.007742
 S        -15.776857   -1.485531    0.083227
 N        -14.161564   -1.182755    0.122122
 C        -14.005102    0.142838    0.065638
 C        -12.741652    0.842738    0.075095
 C        -12.843700    2.229515    0.007567
 C        -14.066114    2.924420   -0.068424
 C        -11.465768    0.158561    0.146927
 C        -11.191367   -1.195452    0.285503
 C         -9.817064   -1.499833    0.324546
 C         -8.983105   -0.396465    0.218151
 S         -9.953969    1.059647    0.055770
 H        -11.975717   -1.935205    0.363376
 H        -18.765916    5.856292   -0.310698
 H        -19.896442    3.470381   -0.344199
 H         -9.446784   -2.510353    0.453519
 C         -7.530299   -0.347434    0.226270
 C         -6.783148   -1.542499    0.077048
 C         -6.837533    0.877755    0.386094
 C         -5.393045   -1.517818    0.080820
 H         -7.324033   -2.468242   -0.046733
 C         -5.453985    0.919614    0.412817
 H         -7.397358    1.799172    0.515902
 C         -4.726568   -0.269259    0.269107
 H         -4.942140    1.867039    0.556069
 C         -3.060007   -1.893665    0.117842
 C         -3.306722   -0.496694    0.285951
 C         -1.748268   -2.338810    0.038976
 C         -2.245563    0.410881    0.413261
 C         -0.660486   -1.431289    0.170594
 H         -1.523797   -3.376783   -0.153196
 C         -0.944052   -0.052552    0.364213
 H         -2.439212    1.471329    0.547800
 H         -0.126578    0.653031    0.477380
 C         -4.581116   -3.929201   -0.185420
 H        -14.011884    4.007776   -0.119778
 H        -11.937996    2.828589    0.015908
 C          0.696458   -1.914993    0.101158
 C          1.151371   -3.235007    0.054800
 S          2.075240   -0.820772    0.064967
 C          2.541218   -3.371618   -0.004027
 H          0.483400   -4.088170    0.081046
 C          3.234166   -2.154185   -0.006588
 H          3.065614   -4.315940   -0.038809
 C          4.646848   -1.907442   -0.058207
 C          5.615202   -2.973085   -0.136826
 C          5.167924   -0.593305   -0.035627
 N          5.326087   -4.283059   -0.169965
 C          7.037893   -2.682233   -0.187595
 C          6.525202   -0.316662   -0.083851
 H          4.482012    0.246527    0.023077
 S          6.785888   -5.091475   -0.261153
 N          7.814041   -3.775296   -0.259365
 C          7.515698   -1.322282   -0.159708
 H          6.830630    0.725089   -0.063265
 C          8.914388   -0.996192   -0.203064
 C         10.024638   -1.838810   -0.298820
 S          9.462496    0.684868   -0.126928
 C         11.253778   -1.163378   -0.315939
 H          9.913332   -2.912038   -0.362318
 C         11.153721    0.222495   -0.234744
 H         12.202902   -1.678333   -0.413066
 C         12.218617    1.209105   -0.230783
 C         13.558451    0.799492   -0.010286
 C         11.951327    2.583163   -0.436721
 C         14.596713    1.725671   -0.020109
 H         13.742739   -0.243232    0.201339
 C         12.972714    3.522253   -0.413564
 H         10.933021    2.911232   -0.623622
 C         14.288314    3.102732   -0.203231
 H         12.743848    4.574487   -0.558824
 C         15.515010    3.874908   -0.103257
 C         16.591703    2.983865    0.159721
 C         16.765270    0.448029    0.440061
 C         15.719265    5.249671   -0.241576
 C         17.886974    3.510190    0.242085
 C         17.013262    5.756098   -0.128634
 H         14.883612    5.915266   -0.441483
 C         18.086013    4.888228    0.104831
 H         18.751214    2.878651    0.396389
 H         17.190703    6.822906   -0.232578
 H         19.094515    5.286499    0.176289
 C         16.062196    1.593854    0.219355
 C         -4.368389   -2.593586   -0.017720
 C         18.218112    0.444344    0.856279
 H         18.474497   -0.511303    1.323843
 H         18.888362    0.566826   -0.006979
 H         18.449207    1.237608    1.571579
 C         16.163875   -0.930144    0.288891
 H         15.615319   -1.236034    1.191763
 H         15.476169   -0.995493   -0.558031
 H         16.954122   -1.671136    0.133310
 C         -3.476306   -4.954888   -0.086303
 H         -2.908154   -5.030712   -1.024870
 H         -2.768355   -4.728910    0.715341
 H         -3.896336   -5.945682    0.110393
 C         -5.943698   -4.510226   -0.484803
 H         -6.560801   -4.585337    0.422219
 H         -6.497570   -3.914644   -1.215694
 H         -5.845242   -5.522399   -0.887445
