       108
S0: Total Energy = -6754.70627514
 C         15.158887    4.367702    0.297646
 C         13.886538    3.850978    0.538550
 C         13.705891    2.487574    0.220180
 C         14.785609    1.726058   -0.316443
 C         16.059212    2.241654   -0.554456
 C         16.239774    3.604356   -0.240017
 C         17.430733    4.405720   -0.392941
 H         18.364160    4.029074   -0.794678
 C         17.271683    5.690855    0.010797
 S         15.662078    6.033585    0.609411
 C         12.652949    0.386094   -0.016970
 S         14.289950    0.062873   -0.626776
 C         12.523328    1.692679    0.380439
 H         11.602329    2.076814    0.803714
 H         18.009326    6.482794   -0.001298
 C         11.620458   -0.631901   -0.021846
 C         11.708313   -2.019385   -0.005420
 S          9.947626   -0.107773   -0.043420
 C         10.431214   -2.635318    0.009305
 C          9.354659   -1.765318   -0.000823
 H         10.302334   -3.708257    0.036609
 C          7.938495   -2.090259    0.011102
 C          6.932705   -1.142096    0.015295
 C          7.426696   -3.445285    0.018819
 C          5.545234   -1.425414    0.025176
 C          5.993800   -3.737954    0.027892
 C          4.991743   -2.692048    0.030305
 F          7.234848    0.170279    0.007804
 F          4.752687   -0.336622    0.029468
 N          8.180328   -4.544827    0.018338
 N          5.731646   -5.044922    0.034525
 C          3.561653   -2.948429    0.036631
 C          2.912273   -4.170778    0.017963
 S          2.366567   -1.656045    0.079515
 C          1.496174   -4.104992    0.026484
 H          3.451592   -5.107197   -0.010787
 C          1.032363   -2.793764    0.047295
 C         -0.315467   -2.262266    0.038499
 C         -0.701859   -0.994855   -0.321039
 S         -1.706252   -3.222164    0.585997
 C         -2.102397   -0.732609   -0.178630
 H          0.001933   -0.264811   -0.703955
 C         -2.809522   -1.875762    0.302306
 C         -2.793854    0.465159   -0.466435
 C         -4.186527   -1.906199    0.509836
 C         -4.170787    0.434846   -0.258524
 C         -4.878005   -0.708576    0.221866
 S         -5.274061    1.781759   -0.540463
 C         -6.278697   -0.446143    0.364977
 C         -6.664268    0.821803    0.007559
 H         -6.982993   -1.175682    0.747897
 C         -8.012090    1.354445   -0.000768
 C         -8.474940    2.664557    0.051644
 S         -9.346090    0.218990   -0.078520
 C         -9.891471    2.731108    0.048916
 C        -10.540750    1.510396   -0.010221
 H        -10.430797    3.666600    0.099721
 C        -11.971851    1.254605   -0.024040
 C        -12.525600   -0.009631   -0.077076
 C        -12.973620    2.299749    0.016050
 C        -13.914794   -0.292644   -0.090259
 F        -11.734089   -1.098220   -0.121475
 C        -14.406568    2.006974    0.002170
 N        -12.711069    3.605629    0.068684
 C        -14.919299    0.653882   -0.052893
 F        -14.214458   -1.604299   -0.143918
 N        -15.160068    3.106327    0.045117
 C        -16.339716    0.330378   -0.067307
 C        -17.413481    1.200670   -0.032991
 S        -16.933179   -1.333542   -0.134992
 C        -18.691645    0.568319   -0.059569
 H        -17.283444    2.273158    0.010397
 C        -18.576218   -0.797077   -0.114684
 H        -19.375533   -1.526879   -0.144908
 C         -2.085890    1.688946   -0.991121
 H         -2.004827    1.667053   -2.086005
 H         -2.621371    2.605271   -0.721164
 H         -1.072237    1.771249   -0.587952
 C         -4.894389   -3.130005    1.034665
 H         -4.359520   -4.046396    0.763685
 H         -4.974317   -3.108630    2.129648
 H         -5.908463   -3.211736    0.632480
 C         12.779656    4.689642    1.126506
 H         11.795820    4.360703    0.779819
 H         12.777482    4.638574    2.223500
 H         12.889557    5.743412    0.849061
 C         17.159261    1.390616   -1.138220
 H         17.116496    0.367767   -0.746415
 H         17.076314    1.323494   -2.231188
 H         18.149764    1.789591   -0.905631
 S          7.169022   -5.837598    0.029084
 S        -14.148646    4.397465    0.098227
 C         12.978853   -2.831189    0.018933
 H         13.474276   -2.843404   -0.959903
 H         13.700548   -2.442234    0.744321
 H         12.757514   -3.868914    0.285525
 C          0.646838   -5.350412   -0.007512
 H          0.174050   -5.549003    0.962359
 H         -0.153070   -5.281660   -0.751827
 H          1.263468   -6.219679   -0.254300
 C         -7.624547    3.907391    0.128377
 H         -6.820084    3.809544    0.864331
 H         -7.157655    4.142746   -0.836181
 H         -8.238976    4.767027    0.411852
 C        -19.996335    1.319577   -0.030111
 H        -20.083290    1.929883    0.877069
 H        -20.082797    1.999962   -0.886037
 H        -20.848993    0.634759   -0.057548
       108
T1: Total Energy = -6754.66570796
 C         15.105511    4.387289   -0.126122
 C         13.798969    3.906724   -0.092943
 C         13.660821    2.498603   -0.104266
 C         14.814690    1.659052   -0.150266
 C         16.120530    2.139826   -0.180522
 C         16.259795    3.545301   -0.172437
 C         17.477611    4.314689   -0.211285
 H         18.467232    3.875699   -0.260214
 C         17.268881    5.656178   -0.187621
 S         15.576363    6.092330   -0.116435
 C         12.623443    0.370442   -0.090909
 S         14.353776   -0.043451   -0.164464
 C         12.453068    1.743384   -0.066629
 H         11.472859    2.203286   -0.017059
 H         18.014751    6.440229   -0.207392
 C         11.589240   -0.620035   -0.068769
 C         11.656910   -2.026549   -0.067908
 S          9.911388   -0.078731   -0.036635
 C         10.392544   -2.625039   -0.040258
 C          9.299733   -1.739936   -0.019482
 H         10.245972   -3.695501   -0.034271
 C          7.916538   -2.063519    0.009274
 C          6.887058   -1.077522    0.029137
 C          7.410983   -3.424569    0.020742
 C          5.542927   -1.350266    0.056367
 C          5.976039   -3.717160    0.050019
 C          4.978547   -2.660888    0.068707
 F          7.231957    0.229939    0.021166
 F          4.715220   -0.281340    0.072452
 N          8.170698   -4.515902    0.006130
 N          5.703757   -5.018133    0.056371
 C          3.582037   -2.901320    0.095615
 C          2.920301   -4.146984    0.113263
 S          2.369902   -1.610875    0.111029
 C          1.526838   -4.091860    0.136757
 H          3.475726   -5.073736    0.108469
 C          1.035031   -2.767187    0.138266
 C         -0.298356   -2.265313    0.156850
 C         -0.678719   -0.928699    0.152054
 S         -1.732580   -3.319743    0.191166
 C         -2.079099   -0.704783    0.174376
 H          0.046131   -0.123192    0.130480
 C         -2.821098   -1.929124    0.193557
 C         -2.749578    0.544968    0.176405
 C         -4.207412   -1.987200    0.211614
 C         -4.137450    0.484897    0.191582
 C         -4.877314   -0.737927    0.210533
 S         -5.227422    1.872413    0.193888
 C         -6.283266   -0.510714    0.234142
 C         -6.654939    0.816902    0.227899
 H         -7.008583   -1.315722    0.265870
 C         -8.000396    1.341466    0.222788
 C         -8.476171    2.642366    0.380509
 S         -9.328459    0.215656   -0.010255
 C         -9.889490    2.706180    0.321916
 C        -10.529558    1.495212    0.119786
 H        -10.435599    3.632599    0.430638
 C        -11.956213    1.242157    0.015115
 C        -12.501561   -0.012889   -0.177842
 C        -12.962771    2.279950    0.101800
 C        -13.886642   -0.293322   -0.282729
 F        -11.703726   -1.092343   -0.282156
 C        -14.391905    1.989520   -0.006838
 N        -12.708501    3.575726    0.283455
 C        -14.895843    0.646699   -0.207554
 F        -14.178304   -1.594554   -0.468571
 N        -15.151228    3.080614    0.098079
 C        -16.311993    0.325812   -0.318001
 C        -17.390153    1.189575   -0.255201
 S        -16.894577   -1.325163   -0.563978
 C        -18.662671    0.562354   -0.398793
 H        -17.266806    2.253654   -0.108632
 C        -18.538647   -0.792624   -0.571962
 H        -19.332645   -1.516600   -0.705500
 C         -1.977064    1.838950    0.152214
 H         -1.439936    1.963236   -0.796559
 H         -2.631100    2.706163    0.277222
 H         -1.230821    1.869802    0.954618
 C         -4.982263   -3.280408    0.238075
 H         -4.328298   -4.149762    0.128395
 H         -5.530653   -3.395767    1.181446
 H         -5.718956   -3.317405   -0.572949
 C         12.594853    4.811511   -0.028196
 H         11.809632    4.479855   -0.716086
 H         12.160908    4.826313    0.980096
 H         12.849099    5.842012   -0.292591
 C         17.313026    1.218278   -0.245723
 H         17.100357    0.257543    0.235076
 H         17.600835    1.008403   -1.284395
 H         18.183582    1.649602    0.256542
 S          7.155134   -5.835791    0.027675
 S        -14.149338    4.361943    0.314741
 C         12.918378   -2.849471   -0.091471
 H         13.512307   -2.661259   -0.993488
 H         13.560006   -2.638963    0.771954
 H         12.671198   -3.914453   -0.071881
 C          0.685789   -5.340605    0.157173
 H          0.054826   -5.393014    1.052115
 H          0.022962   -5.400344   -0.713929
 H          1.328176   -6.225315    0.149318
 C         -7.642895    3.878601    0.601978
 H         -6.970500    3.772844    1.460581
 H         -7.023302    4.116578   -0.271063
 H         -8.291054    4.739345    0.789384
 C        -19.970656    1.307580   -0.362986
 H        -20.102277    1.833942    0.590197
 H        -20.020171    2.061937   -1.157631
 H        -20.818076    0.627823   -0.491542
       108
S1: Total Energy = -6754.64916967
 C         15.096593    4.393693    0.040830
 C         13.790854    3.910495    0.061813
 C         13.653896    2.502495    0.026313
 C         14.808942    1.665899   -0.028994
 C         16.114334    2.148918   -0.045729
 C         16.252423    3.554314   -0.014399
 C         17.469345    4.325444   -0.035638
 H         18.459615    3.887974   -0.087045
 C         17.259858    5.666527    0.008268
 S         15.566305    6.099578    0.078410
 C         12.617185    0.375845    0.000182
 S         14.347283   -0.035918   -0.072487
 C         12.445888    1.745335    0.046364
 H         11.465159    2.203888    0.100349
 H         18.005079    6.451422    0.003976
 C         11.584543   -0.624858   -0.002202
 C         11.657411   -2.022659    0.000312
 S          9.906399   -0.092833   -0.007686
 C         10.385088   -2.628946    0.001724
 C          9.302189   -1.752077   -0.000941
 H         10.242672   -3.700198    0.005902
 C          7.898869   -2.074795   -0.000221
 C          6.887216   -1.100439   -0.003114
 C          7.398654   -3.431886    0.003512
 C          5.526266   -1.379580   -0.002310
 C          5.967104   -3.724758    0.004623
 C          4.977921   -2.672386    0.001773
 F          7.216583    0.212739   -0.007276
 F          4.706591   -0.303201   -0.005571
 N          8.166404   -4.526752    0.006471
 N          5.689679   -5.033088    0.008368
 C          3.558586   -2.924277    0.003124
 C          2.908231   -4.160633    0.008636
 S          2.358568   -1.634985   -0.002051
 C          1.504311   -4.104276    0.008866
 H          3.463950   -5.087256    0.012394
 C          1.018911   -2.785557    0.003176
 C         -0.312539   -2.277450    0.001053
 C         -0.689227   -0.933672   -0.007488
 S         -1.744565   -3.324165    0.009654
 C         -2.080435   -0.707336   -0.007599
 H          0.040388   -0.132646   -0.013752
 C         -2.831027   -1.930230    0.001450
 C         -2.748207    0.552461   -0.015693
 C         -4.212314   -1.982383    0.003303
 C         -4.130724    0.499697   -0.013836
 C         -4.880020   -0.722364   -0.004539
 S         -5.215869    1.893304   -0.022444
 C         -6.272564   -0.494134   -0.004573
 C         -6.646297    0.846634   -0.013449
 H         -7.001701   -1.295992    0.001402
 C         -7.982206    1.358564   -0.015089
 C         -8.460300    2.677421   -0.026771
 S         -9.320335    0.213790   -0.000472
 C         -9.867390    2.735251   -0.024290
 C        -10.515181    1.504392   -0.010616
 H        -10.414670    3.667139   -0.032433
 C        -11.939541    1.249751   -0.004878
 C        -12.491831   -0.023053    0.011761
 C        -12.940849    2.296435   -0.015823
 C        -13.873591   -0.307161    0.017803
 F        -11.692170   -1.106585    0.023468
 C        -14.372768    1.999641   -0.009588
 N        -12.679489    3.603005   -0.032381
 C        -14.881603    0.644210    0.007982
 F        -14.176866   -1.619673    0.034523
 N        -15.129832    3.097794   -0.021617
 C        -16.297601    0.318369    0.014498
 C        -17.374535    1.188863    0.005634
 S        -16.890416   -1.348546    0.036033
 C        -18.650264    0.554990    0.015670
 H        -17.244956    2.262121   -0.007840
 C        -18.532767   -0.812478    0.032320
 H        -19.331896   -1.543094    0.042678
 C         -1.961646    1.836365   -0.025723
 H         -1.316000    1.896171   -0.910355
 H         -2.611966    2.714935   -0.029873
 H         -1.311991    1.907508    0.855089
 C         -4.998855   -3.266912    0.013340
 H         -4.347700   -4.144719    0.014772
 H         -5.641855   -3.328673    0.899677
 H         -5.649896   -3.337549   -0.866368
 C         12.582285    4.808833    0.132901
 H         11.832126    4.525271   -0.613973
 H         12.099431    4.750332    1.117004
 H         12.843588    5.855892   -0.044518
 C         17.308699    1.230497   -0.121071
 H         17.092848    0.258435    0.334757
 H         17.607006    1.045512   -1.161559
 H         18.173855    1.651136    0.399504
 S          7.145995   -5.841437    0.010362
 S        -14.121389    4.394970   -0.039421
 C         12.918833   -2.847185    0.004734
 H         13.526409   -2.672263   -0.891149
 H         13.549627   -2.627997    0.874086
 H         12.670253   -3.911814    0.033679
 C          0.664817   -5.353552    0.014482
 H          0.018701   -5.407834    0.898910
 H          0.016115   -5.414086   -0.867622
 H          1.307408   -6.238033    0.016712
 C         -7.619314    3.925837   -0.040829
 H         -6.971191    3.992271    0.841019
 H         -6.973426    3.973905   -0.925493
 H         -8.261047    4.810967   -0.049141
 C        -19.956601    1.303804    0.008677
 H        -20.043075    1.959856    0.883312
 H        -20.045689    1.938775   -0.881119
 H        -20.807665    0.616628    0.018144
