       136
S0: Total Energy = -8961.95261306
 C         14.094440    3.512809    0.088085
 C         12.777460    3.091600   -0.138014
 C         12.526988    1.705274    0.016867
 C         13.583967    0.825505    0.392414
 C         14.900545    1.246286    0.614434
 C         15.151163    2.631438    0.462474
 C         16.383545    3.344462    0.692392
 H         17.303366    2.864039    1.001435
 C         16.270901    4.681999    0.495874
 S         14.663715    5.182041    0.019253
 C         11.726561    4.051778   -0.514845
 C         11.737203    4.966931   -1.539648
 S         10.238389    4.213355    0.412399
 C         10.567108    5.780789   -1.594564
 C          9.653589    5.504568   -0.611904
 C         15.951104    0.283378    0.989091
 C         15.948466   -0.620062    2.023874
 S         17.426181    0.103738    0.044952
 C         17.114859   -1.440241    2.072780
 C         11.387233   -0.359660   -0.029713
 C          8.323213    6.151610   -0.364945
 H          8.273267    6.620299    0.625243
 H          8.147571    6.929343   -1.114509
 H          7.499805    5.430040   -0.427467
 C         19.340538   -1.837720    0.818874
 H         20.169337   -1.120917    0.863131
 H         19.521201   -2.608456    1.574439
 H         19.375051   -2.317408   -0.166699
 C         18.017281   -1.179958    1.075849
 S         13.022372   -0.841875    0.464634
 C         11.304590    0.996398   -0.220355
 H         10.396513    1.483392   -0.553771
 H         17.045820    5.430198    0.602294
 C         10.309635   -1.322239   -0.147015
 C         10.335104   -2.695401   -0.365845
 S          8.662939   -0.736686   -0.011548
 C          9.031766   -3.248267   -0.439110
 C          7.996023   -2.344011   -0.277786
 H          8.854231   -4.299455   -0.617726
 C          6.566570   -2.604260   -0.303469
 C          5.604715   -1.624120   -0.146219
 C          5.994300   -3.920947   -0.495731
 C          4.205801   -1.844031   -0.166777
 C          4.549750   -4.148132   -0.516652
 C          3.595907   -3.071301   -0.347023
 F          5.965646   -0.341220    0.045863
 F          3.463303   -0.734505    0.008301
 N          6.697587   -5.039974   -0.669436
 N          4.228937   -5.428124   -0.705505
 C          2.155576   -3.262341   -0.363590
 C          1.452746   -4.442317   -0.538012
 S          1.019966   -1.935613   -0.142286
 C          0.041285   -4.316295   -0.509464
 H          1.950147   -5.389228   -0.694022
 C         -0.363099   -2.999670   -0.313392
 C         -1.686353   -2.414123   -0.243101
 C         -2.014956   -1.095281   -0.436794
 S         -3.115097   -3.376329    0.185210
 C         -3.402378   -0.795971   -0.253571
 H         -1.286624   -0.351119   -0.734716
 C         -4.155576   -1.959435    0.082771
 C         -4.057886    0.450030   -0.425846
 C         -5.544831   -1.963022    0.248385
 C         -5.447146    0.446410   -0.260387
 C         -3.335618    1.688264   -0.762756
 C         -6.200248   -0.717003    0.076333
 C         -6.267120   -3.201282    0.585160
 S         -6.487945    1.863106   -0.363329
 C         -3.576238    2.559685   -1.797458
 S         -2.015626    2.294356    0.232399
 C         -7.587633   -0.417733    0.259839
 C         -6.026461   -4.072878    1.619715
 S         -7.587336   -3.807087   -0.409873
 C         -7.916568    0.900896    0.065573
 C         -2.710618    3.693416   -1.805576
 C         -1.805511    3.706679   -0.777454
 H         -8.315695   -1.162017    0.558085
 C         -6.892216   -5.206506    1.627804
 C         -7.797490   -5.219528    0.599821
 C         -9.240050    1.486146    0.136253
 C         -0.751109    4.729526   -0.474874
 C         -8.852185   -6.242100    0.297340
 C         -9.645219    2.803233    0.325740
 S        -10.622809    0.419738   -0.024050
 H          0.255830    4.295523   -0.490621
 H         -0.786406    5.526762   -1.223698
 H         -0.895204    5.186657    0.511466
 H         -8.708582   -6.698940   -0.689205
 H         -8.816744   -7.039580    1.045888
 H         -9.859043   -5.807953    0.313660
 C        -11.057131    2.927990    0.357657
 C        -11.758838    1.746512    0.192619
 H        -11.555103    3.875342    0.509226
 C        -13.199769    1.553077    0.182206
 C        -13.808242    0.324251    0.016169
 C        -14.154739    2.629655    0.345081
 C        -15.208381    0.101645    0.003421
 F        -13.065483   -0.786244   -0.151182
 C        -15.599007    2.399160    0.331501
 N        -13.835354    3.911952    0.520491
 C        -16.170412    1.080475    0.154179
 F        -15.565099   -1.184710   -0.173049
 N        -16.303676    3.519055    0.497274
 C        -17.603415    0.818564    0.137067
 C        -18.638375    1.723922    0.281293
 S        -18.268416   -0.804266   -0.085715
 C        -19.942645    1.150232    0.217552
 H        -18.461998    2.780219    0.430036
 C        -19.886404   -0.206061    0.022607
 H        -20.716314   -0.896023   -0.064510
 H         17.282939   -2.198642    2.830939
 H         15.140827   -0.681089    2.745396
 H         12.553461    5.040489   -2.250112
 H         10.404132    6.546273   -2.346675
 H         -5.263453   -3.894667    2.369811
 H         -6.849746   -5.987953    2.379919
 H         -4.339165    2.381299   -2.547590
 H         -2.753122    4.474784   -2.557775
 S          5.628998   -6.273525   -0.844543
 S        -15.236777    4.755685    0.656667
 C         11.566966   -3.548050   -0.536759
 H         12.289298   -3.093476   -1.222368
 H         12.083156   -3.715631    0.416700
 H         11.293180   -4.528936   -0.936472
 C         -0.863109   -5.507835   -0.698681
 H         -1.342596   -5.810001    0.240655
 H         -1.660644   -5.307615   -1.421513
 H         -0.286622   -6.364054   -1.061073
 C         -8.741826    3.997077    0.505041
 H         -7.943364    3.803225    1.228626
 H         -8.263528    4.292675   -0.437001
 H         -9.318806    4.855425    0.861581
 C        -21.213425    1.947261    0.349583
 H        -21.260283    2.463528    1.316171
 H        -21.283586    2.715559   -0.430025
 H        -22.095168    1.304760    0.268619
       136
T1: Total Energy = -8961.91163604
 C        -14.038065   -3.524082   -0.265847
 C        -12.702235   -3.105526   -0.220229
 C        -12.488063   -1.705216   -0.109189
 C        -13.601214   -0.813921   -0.037297
 C        -14.932869   -1.233644   -0.083573
 C        -15.148101   -2.631045   -0.195509
 C        -16.402294   -3.338615   -0.196979
 H        -17.365589   -2.848481   -0.133194
 C        -16.254848   -4.686375   -0.271805
 S        -14.585949   -5.200229   -0.343881
 C        -11.598358   -4.075222   -0.286801
 C        -11.399485   -5.075198   -1.208924
 S        -10.332758   -4.133557    0.936754
 C        -10.245367   -5.871591   -0.951574
 C         -9.553340   -5.498107    0.170447
 C        -16.038684   -0.262195   -0.013970
 C        -16.265865    0.701510    0.938200
 S        -17.264757   -0.157922   -1.272860
 C        -17.412145    1.508959    0.674887
 C        -11.359409    0.372277   -0.032810
 C         -8.304059   -6.101117    0.740361
 H         -8.460472   -6.482763    1.756447
 H         -7.980001   -6.936946    0.112814
 H         -7.483930   -5.374652    0.785877
 C        -19.299409    1.804422   -1.066823
 H        -20.116565    1.080726   -1.172126
 H        -19.646676    2.612247   -0.415426
 H        -19.108969    2.229959   -2.059419
 C        -18.069065    1.178214   -0.480608
 S        -13.067609    0.862351    0.048932
 C        -11.247745   -1.004362   -0.113703
 H        -10.291855   -1.506080   -0.197224
 H        -17.037919   -5.433440   -0.289350
 C        -10.280625    1.313411   -0.005887
 C        -10.285543    2.722193    0.001417
 S         -8.629330    0.696585    0.021458
 C         -8.995998    3.262771    0.021496
 C         -7.943805    2.328549    0.033765
 H         -8.801101    4.325460    0.025609
 C         -6.547971    2.590290    0.057828
 C         -5.563180    1.559060    0.069699
 C         -5.981725    3.927529    0.074773
 C         -4.208206    1.771272    0.096783
 C         -4.535100    4.155356    0.103884
 C         -3.585604    3.055349    0.117106
 F         -5.966223    0.268836    0.055156
 F         -3.429285    0.666676    0.105799
 N         -6.691470    5.051835    0.066158
 N         -4.205084    5.442737    0.116250
 C         -2.179854    3.232567    0.148731
 C         -1.463926    4.447876    0.173223
 S         -1.026638    1.889471    0.169570
 C         -0.074616    4.330889    0.205361
 H         -1.977687    5.398294    0.165448
 C          0.357170    2.985379    0.204522
 C          1.668434    2.426405    0.224486
 C          1.989044    1.076534    0.163504
 S          3.142440    3.415914    0.342317
 C          3.378375    0.791230    0.212222
 H          1.235258    0.305760    0.062999
 C          4.165452    1.982253    0.297460
 C          4.014865   -0.480254    0.130160
 C          5.559748    1.990699    0.291015
 C          5.412040   -0.469299    0.120605
 C          3.261795   -1.740948    0.054341
 C          6.195902    0.720708    0.205274
 C          6.315795    3.251573    0.372842
 S          6.440769   -1.898203    0.082268
 C          3.400795   -2.760845   -0.857162
 S          2.042900   -2.172691    1.250137
 C          7.591373    0.435722    0.254169
 C          6.206727    4.249190    1.311338
 S          7.496723    3.709156   -0.850213
 C          7.905703   -0.904174    0.196786
 C          2.538027   -3.869139   -0.613344
 C          1.736381   -3.715605    0.487263
 H          8.344348    1.207234    0.357330
 C          7.063121    5.363046    1.066005
 C          7.829826    5.234337   -0.061904
 C          9.229759   -1.482509    0.191564
 C          0.715295   -4.665750    1.038340
 C          8.834223    6.196449   -0.623113
 C          9.654077   -2.794955    0.390054
 S         10.596660   -0.419480   -0.096806
 H         -0.287661   -4.222838    1.053755
 H          0.677274   -5.565750    0.417115
 H          0.953649   -4.973029    2.063667
 H          8.562700    6.529262   -1.632101
 H          8.894561    7.081001    0.018265
 H          9.835427    5.753223   -0.682692
 C         11.063287   -2.916817    0.321934
 C         11.747783   -1.739368    0.071338
 H         11.574124   -3.859152    0.461134
 C         13.182561   -1.546505   -0.053860
 C         13.774280   -0.321280   -0.294844
 C         14.148844   -2.619253    0.060391
 C         15.168283   -0.099175   -0.421327
 F         13.018331    0.784325   -0.430237
 C         15.587073   -2.389130   -0.070779
 N         13.846231   -3.896939    0.289886
 C         16.140792   -1.074861   -0.322728
 F         15.508389    1.182506   -0.654675
 N         16.304445   -3.504772    0.066158
 C         17.567192   -0.813818   -0.457498
 C         18.611459   -1.716751   -0.376439
 S         18.210906    0.803912   -0.764546
 C         19.905838   -1.145187   -0.553705
 H         18.448383   -2.769694   -0.192910
 C         19.832739    0.207093   -0.770990
 H         20.652635    0.894609   -0.936699
 H        -17.744171    2.309922    1.327862
 H        -15.640000    0.815469    1.816796
 H        -12.050125   -5.220709   -2.064371
 H         -9.931977   -6.695355   -1.585015
 H          5.546334    4.176856    2.168802
 H          7.114630    6.233381    1.712466
 H          4.084988   -2.706639   -1.696997
 H          2.506420   -4.753657   -1.241510
 S         -5.618004    6.324591    0.092724
 S         15.255633   -4.737427    0.336636
 C        -11.509231    3.600299   -0.015708
 H        -12.139411    3.407016   -0.891332
 H        -12.131845    3.450590    0.874220
 H        -11.214485    4.652967   -0.041428
 C          0.821060    5.540929    0.232262
 H          1.432148    5.576015    1.141860
 H          1.506671    5.560876   -0.622680
 H          0.219301    6.453243    0.200143
 C          8.772532   -3.986151    0.665527
 H          8.078982   -3.801866    1.493097
 H          8.170903   -4.260867   -0.209524
 H          9.384488   -4.853952    0.927706
 C         21.184129   -1.939683   -0.505734
 H         21.307247   -2.436339    0.464391
 H         21.193906   -2.723462   -1.272902
 H         22.055877   -1.299081   -0.668474
       136
S1: Total Energy = -8961.89521521
 C        -14.040229   -3.522034   -0.234336
 C        -12.703598   -3.101818   -0.235023
 C        -12.484151   -1.706312   -0.076699
 C        -13.594282   -0.822651    0.084078
 C        -14.926181   -1.243775    0.082792
 C        -15.146415   -2.636501   -0.075143
 C        -16.398472   -3.346912   -0.043500
 H        -17.357882   -2.862313    0.087079
 C        -16.254594   -4.690490   -0.179290
 S        -14.590438   -5.195727   -0.352663
 C        -11.604436   -4.065285   -0.393634
 C        -11.454164   -5.033579   -1.358367
 S        -10.275323   -4.163350    0.758684
 C        -10.288543   -5.836478   -1.189371
 C         -9.538238   -5.500187   -0.093197
 C        -16.028180   -0.279101    0.242897
 C        -16.208289    0.650318    1.238364
 S        -17.316358   -0.133872   -0.948434
 C        -17.366973    1.463522    1.061339
 C        -11.355059    0.368374    0.026122
 C         -8.260370   -6.120008    0.388471
 H         -8.361308   -6.533334    1.399231
 H         -7.971933   -6.935656   -0.281648
 H         -7.438220   -5.394707    0.411874
 C        -19.339356    1.815375   -0.572272
 H        -20.162470    1.095413   -0.654979
 H        -19.649905    2.604172    0.119743
 H        -19.201095    2.269528   -1.560837
 C        -18.080784    1.171893   -0.070706
 S        -13.056514    0.849904    0.210199
 C        -11.246058   -1.001202   -0.114107
 H        -10.294558   -1.494497   -0.268112
 H        -17.037046   -5.438319   -0.188905
 C        -10.277935    1.319696    0.044831
 C        -10.288422    2.719779    0.047998
 S         -8.625688    0.712396    0.060417
 C         -8.990811    3.268067    0.051784
 C         -7.948033    2.342768    0.055981
 H         -8.800222    4.331747    0.048021
 C         -6.532129    2.603118    0.060550
 C         -5.564354    1.584443    0.068763
 C         -5.971775    3.936538    0.057115
 C         -4.192781    1.802175    0.072589
 C         -4.527956    4.165245    0.060065
 C         -3.586480    3.069558    0.068073
 F         -5.952584    0.287558    0.074502
 F         -3.421880    0.690309    0.081799
 N         -6.689267    5.064675    0.050019
 N         -4.192904    5.459695    0.054941
 C         -2.158042    3.257298    0.070954
 C         -1.453335    4.464102    0.062422
 S         -1.016100    1.916181    0.089528
 C         -0.053936    4.345868    0.068159
 H         -1.967739    5.414162    0.050972
 C          0.372908    3.006613    0.080727
 C          1.681391    2.442664    0.085424
 C          1.998186    1.084397    0.049516
 S          3.155294    3.424915    0.143807
 C          3.378332    0.796748    0.077951
 H          1.237062    0.318215   -0.022417
 C          4.176039    1.986751    0.115075
 C          4.009741   -0.487904    0.009005
 C          5.565171    1.990240    0.067331
 C          5.402047   -0.482916   -0.038117
 C          3.248069   -1.741319   -0.018645
 C          6.196282    0.706015   -0.002642
 C          6.330209    3.243835    0.097854
 S          6.424649   -1.918747   -0.058316
 C          3.391600   -2.802453   -0.884199
 S          2.011814   -2.113793    1.179981
 C          7.579403    0.419684    0.027879
 C          6.208239    4.290551    0.982243
 S          7.539780    3.631037   -1.122097
 C          7.894956   -0.933719   -0.001793
 C          2.520658   -3.892853   -0.602457
 C          1.707899   -3.686631    0.482598
 H          8.337511    1.189635    0.096512
 C          7.076358    5.383695    0.698096
 C          7.864411    5.192573   -0.407075
 C          9.210191   -1.500448    0.005289
 C          0.676888   -4.606897    1.064077
 C          8.883178    6.120255   -0.998646
 C          9.632454   -2.836434    0.056725
 S         10.593271   -0.413364   -0.053836
 H         -0.323768   -4.159108    1.047637
 H          0.642143   -5.534014    0.484171
 H          0.902534   -4.867224    2.105074
 H          8.630643    6.400989   -2.028090
 H          8.936347    7.036327   -0.402804
 H          9.882646    5.669804   -1.017233
 C         11.036527   -2.952650    0.055138
 C         11.733833   -1.750854    0.000820
 H         11.544655   -3.905651    0.095469
 C         13.168023   -1.555168   -0.014300
 C         13.771799   -0.308185   -0.076500
 C         14.126197   -2.640599    0.034108
 C         15.164842   -0.081031   -0.092362
 F         13.018186    0.806413   -0.127713
 C         15.569100   -2.402983    0.017947
 N         13.812129   -3.934016    0.097926
 C         16.133069   -1.070953   -0.048040
 F         15.520529    1.216629   -0.156238
 N         16.280514   -3.529971    0.070133
 C         17.561481   -0.803187   -0.065481
 C         18.602265   -1.715450   -0.025829
 S         18.220736    0.836637   -0.144796
 C         19.902656   -1.134195   -0.057478
 H         18.429722   -2.781513    0.025113
 C         19.840152    0.235374   -0.121647
 H         20.667798    0.932648   -0.157085
 H        -17.666462    2.240212    1.757939
 H        -15.538926    0.735328    2.087648
 H        -12.148565   -5.150540   -2.183231
 H        -10.008830   -6.637425   -1.866397
 H          5.534098    4.265070    1.831405
 H          7.121320    6.285529    1.300020
 H          4.080855   -2.787057   -1.721342
 H          2.489468   -4.803205   -1.192303
 S         -5.611326    6.332464    0.047008
 S         15.220111   -4.782964    0.134538
 C        -11.512334    3.598901    0.038894
 H        -12.169765    3.379651   -0.810159
 H        -12.108776    3.480410    0.951614
 H        -11.218135    4.650065   -0.028801
 C          0.840281    5.556548    0.059120
 H          1.473041    5.603707    0.953741
 H          1.506297    5.567223   -0.811879
 H          0.237852    6.468431    0.029912
 C          8.739989   -4.047477    0.113740
 H          8.070114   -4.022487    0.981093
 H          8.112309   -4.134923   -0.781236
 H          9.343799   -4.956227    0.184703
 C         21.177873   -1.934243   -0.024143
 H         21.242951   -2.540141    0.887739
 H         21.236304   -2.624071   -0.874782
 H         22.056005   -1.282773   -0.058504
