       119
S0: Total Energy = -6672.84792328
 N         17.087440   -1.871943    0.240567
 C         18.515959   -1.773739    0.274558
 C         18.772563   -0.356379    0.171151
 C         19.809262    0.580256    0.126187
 N         19.212931    1.832947    0.010032
 C         17.783316    1.735683   -0.022227
 C         17.526133    0.319078    0.082432
 C         16.488818   -0.618111    0.125291
 O         19.245944   -2.760815    0.373271
 O         17.053701    2.723340   -0.120094
 C         15.080775   -0.351306    0.063783
 C         14.518083    0.917850   -0.045109
 C         13.114661    0.913779   -0.087993
 C         12.551603   -0.352714   -0.014860
 S         13.805543   -1.569116    0.114214
 H         15.131162    1.812223   -0.092995
 H         12.521773    1.818014   -0.174695
 C         21.222893    0.314918    0.187391
 C         21.785372   -0.950011    0.305235
 C         23.200157   -0.937708    0.343936
 C         23.726905    0.326061    0.256701
 S         22.498463    1.532517    0.124911
 H         21.174220   -1.845172    0.360229
 H         23.806947   -1.831769    0.433183
 C         11.161852   -0.724558   -0.032337
 C         10.596607   -1.989477   -0.013066
 C          9.187518   -1.983955   -0.040005
 C          8.633278   -0.714586   -0.080532
 S          9.903052    0.500931   -0.084509
 H         11.186355   -2.899327    0.017124
 C         16.453378   -3.176675    0.327159
 H         15.814811   -3.254112    1.212467
 H         15.867545   -3.398024   -0.570217
 H         17.263096   -3.903560    0.409703
 C         19.847622    3.137625   -0.075448
 H         20.484492    3.215580   -0.961832
 H         20.436663    3.355427    0.820571
 H         19.038578    3.865527   -0.154382
 H         24.767550    0.622552    0.261865
 C          7.247131   -0.331918   -0.113532
 C          6.695759    0.942207   -0.122990
 S          5.981278   -1.542469   -0.146215
 C          5.292595    0.956831   -0.152873
 H          7.297533    1.844542   -0.105487
 C          4.717076   -0.311842   -0.168734
 H          4.687843    1.858114   -0.159857
 C          3.307360   -0.568628   -0.192961
 C          2.277170    0.379780   -0.188905
 N          2.695883   -1.821070   -0.221184
 C          2.034148    1.803461   -0.159890
 C          1.025848   -0.287407   -0.211019
 C          1.268786   -1.711150   -0.233970
 C          3.317271   -3.134649   -0.247133
 N          0.607025    1.913238   -0.163702
 O          2.775590    2.786952   -0.137866
 C         -0.004487    0.660818   -0.193194
 O          0.527424   -2.694617   -0.261107
 H          3.913584   -3.313966    0.652711
 H          3.942770   -3.263877   -1.135608
 H          2.500441   -3.857452   -0.280047
 C         -0.014231    3.227029   -0.145503
 C         -1.414220    0.403741   -0.199050
 H         -0.627654    3.391911   -1.036469
 H         -0.622699    3.370415    0.752660
 H          0.802814    3.950299   -0.138421
 C         -1.989597   -0.864547   -0.238703
 S         -2.679059    1.632950   -0.148353
 C         -3.392980   -0.850743   -0.228906
 H         -1.384514   -1.765052   -0.271395
 C         -3.944935    0.422378   -0.180785
 H         -3.994680   -1.752896   -0.255790
 C         -5.331367    0.803907   -0.153952
 C         -5.886679    2.072781   -0.110193
 S         -6.600503   -0.412347   -0.169758
 C         -7.295772    2.077490   -0.091003
 H         -5.289737    2.978305   -0.094095
 C         -7.860372    0.812271   -0.119587
 H          8.589974   -2.889152   -0.029347
 H         -7.886219    2.986862   -0.060411
 C         -9.249745    0.439847   -0.110163
 C         -9.812269   -0.826568   -0.190920
 S        -10.504933    1.655210    0.020200
 C        -11.215585   -0.831653   -0.152063
 H         -9.218672   -1.730159   -0.279728
 C        -11.779590    0.436949   -0.039154
 H        -11.828100   -1.726137   -0.204532
 C        -13.187178    0.702962    0.022321
 C        -14.224943   -0.235097   -0.018097
 N        -13.787231    1.956230    0.137173
 C        -14.481087   -1.653101   -0.117970
 C        -15.470266    0.439032    0.073148
 C        -15.215031    1.856414    0.174118
 C        -13.154653    3.262055    0.217716
 N        -15.908837   -1.752836   -0.079442
 O        -13.749444   -2.639159   -0.217071
 C        -16.508332   -0.499942    0.035968
 O        -15.946855    2.842906    0.272310
 H        -12.567913    3.479074   -0.680105
 H        -12.517204    3.344927    1.103366
 H        -13.965200    3.988532    0.295591
 C        -16.542017   -3.058470   -0.160988
 C        -17.915737   -0.235219    0.104510
 H        -17.124296   -3.278049    0.739069
 H        -17.184239   -3.137589   -1.043427
 H        -15.732304   -3.785086   -0.245363
 C        -18.479802    1.032083    0.218272
 S        -19.191585   -1.454338    0.061334
 C        -19.884360    1.025115    0.269170
 H        -17.868186    1.927705    0.262526
 C        -20.445062   -0.240532    0.196989
 H        -20.478795    1.928143    0.357412
 C        -21.839196   -0.617020    0.221472
 C        -22.402574   -1.876653    0.151232
 S        -23.100928    0.601056    0.357017
 C        -23.822994   -1.868460    0.204794
 H        -21.813639   -2.783648    0.063688
 C        -24.343581   -0.606879    0.315716
 H        -24.432198   -2.764405    0.162501
 H        -25.382034   -0.310057    0.375803
       119
T1: Total Energy = -6672.81929818
 N         17.077811   -1.879369    0.185572
 C         18.504238   -1.777412    0.219662
 C         18.756919   -0.355803    0.159832
 C         19.793170    0.584636    0.141321
 N         19.192938    1.838177    0.065453
 C         17.763885    1.737976    0.033739
 C         17.510444    0.318044    0.095187
 C         16.472793   -0.624275    0.110851
 O         19.238896   -2.763858    0.286301
 O         17.031200    2.726593   -0.031708
 C         15.068589   -0.360525    0.060767
 C         14.501131    0.913813   -0.004983
 C         13.102184    0.910441   -0.044730
 C         12.535755   -0.361681   -0.012814
 S         13.794143   -1.582201    0.071714
 H         15.114006    1.809462   -0.023858
 H         12.507913    1.816323   -0.098250
 C         21.206650    0.320627    0.190729
 C         21.772941   -0.946197    0.267669
 C         23.187605   -0.931379    0.303470
 C         23.711325    0.335804    0.254657
 S         22.479518    1.542920    0.163501
 H         21.164024   -1.844102    0.296027
 H         23.796801   -1.826279    0.363258
 C         11.153798   -0.727682   -0.038877
 C         10.585266   -1.999241   -0.034282
 C          9.185267   -1.998710   -0.065572
 C          8.619158   -0.722789   -0.094784
 S          9.891177    0.499164   -0.083032
 H         11.178851   -2.906862   -0.010047
 C         16.448002   -3.188137    0.234433
 H         15.811403   -3.293676    1.118220
 H         15.860995   -3.384465   -0.667967
 H         17.259966   -3.914771    0.293689
 C         19.823871    3.146598    0.018179
 H         20.458200    3.253082   -0.867053
 H         20.414848    3.338483    0.918833
 H         19.012749    3.874403   -0.036380
 H         24.751257    0.634550    0.266670
 C          7.246861   -0.356646   -0.125857
 C          6.679853    0.925413   -0.141634
 S          5.977787   -1.578572   -0.145174
 C          5.292602    0.939782   -0.165468
 H          7.282093    1.827776   -0.133414
 C          4.703388   -0.344997   -0.170811
 H          4.685984    1.839254   -0.177037
 C          3.321918   -0.596084   -0.188604
 C          2.262720    0.372214   -0.191368
 N          2.685605   -1.837694   -0.201320
 C          2.025826    1.809562   -0.178487
 C          1.035949   -0.276203   -0.201948
 C          1.273098   -1.713171   -0.210322
 C          3.294818   -3.158456   -0.213139
 N          0.614044    1.934471   -0.179761
 O          2.787641    2.778026   -0.169666
 C         -0.023612    0.692635   -0.192726
 O          0.512276   -2.682459   -0.223871
 H          3.893596   -3.327807    0.686575
 H          3.916060   -3.300466   -1.102231
 H          2.473743   -3.876358   -0.233885
 C          0.005178    3.255439   -0.174800
 C         -1.403591    0.442026   -0.190807
 H         -0.608732    3.412334   -1.066470
 H         -0.600920    3.410168    0.722648
 H          0.826497    3.973368   -0.176990
 C         -1.993283   -0.844222   -0.210366
 S         -2.679170    1.674950   -0.157059
 C         -3.379051   -0.831035   -0.197918
 H         -1.385892   -1.742995   -0.230885
 C         -3.948579    0.451555   -0.167157
 H         -3.980945   -1.733611   -0.208678
 C         -5.319066    0.814459   -0.141210
 C         -5.887619    2.091072   -0.099533
 S         -6.591246   -0.408767   -0.153248
 C         -7.285808    2.090645   -0.077005
 H         -5.291634    2.997141   -0.085441
 C         -7.855370    0.817653   -0.101033
 H          8.589120   -2.904776   -0.066605
 H         -7.880245    2.997461   -0.044795
 C         -9.235000    0.453072   -0.086445
 C         -9.802443   -0.820040   -0.133014
 S        -10.495360    1.672970    0.002893
 C        -11.199696   -0.824463   -0.099964
 H         -9.207298   -1.725063   -0.191578
 C        -11.769679    0.450364   -0.024973
 H        -11.812266   -1.720028   -0.129158
 C        -13.171616    0.712036    0.023284
 C        -14.210694   -0.232232    0.000539
 N        -13.780107    1.965497    0.104711
 C        -14.462222   -1.653434   -0.067873
 C        -15.455387    0.438652    0.068549
 C        -15.204975    1.860562    0.136835
 C        -13.152799    3.275277    0.159621
 N        -15.888989   -1.757114   -0.035909
 O        -13.726271   -2.639346   -0.139134
 C        -16.493798   -0.504587    0.046740
 O        -15.943101    2.844783    0.208052
 H        -12.563390    3.475161   -0.740401
 H        -12.518976    3.379071    1.045607
 H        -13.966083    4.000419    0.218823
 C        -16.517373   -3.066476   -0.090997
 C        -17.900329   -0.241877    0.100269
 H        -17.105201   -3.266530    0.809977
 H        -17.153339   -3.168132   -0.975641
 H        -15.704924   -3.792270   -0.152802
 C        -18.469319    1.026851    0.182514
 S        -19.173363   -1.465329    0.075436
 C        -19.873440    1.016927    0.224151
 H        -17.860194    1.924777    0.210908
 C        -20.431064   -0.251762    0.175948
 H        -20.470845    1.920038    0.288532
 C        -21.823820   -0.630993    0.199210
 C        -22.383867   -1.893446    0.150568
 S        -23.089675    0.586316    0.302568
 C        -23.804467   -1.887793    0.195046
 H        -21.792134   -2.800434    0.084625
 C        -24.328988   -0.625577    0.277518
 H        -24.411218   -2.785960    0.166766
 H        -25.368563   -0.330427    0.325114
       119
S1: Total Energy = -6672.79953642
 N         17.068323   -1.884400    0.193807
 C         18.492326   -1.780796    0.235538
 C         18.744592   -0.357173    0.190834
 C         19.784410    0.584153    0.186553
 N         19.182904    1.837115    0.120355
 C         17.754269    1.736372    0.080805
 C         17.501142    0.315649    0.127118
 C         16.459438   -0.629361    0.128661
 O         19.229380   -2.765998    0.296051
 O         17.021350    2.725874    0.021308
 C         15.061233   -0.367187    0.074958
 C         14.491619    0.911857    0.018411
 C         13.097642    0.910911   -0.027249
 C         12.525060   -0.364095   -0.009651
 S         13.783975   -1.588904    0.068365
 H         15.106376    1.806450    0.011052
 H         12.504272    1.817788   -0.074097
 C         21.195100    0.319043    0.239754
 C         21.762745   -0.949319    0.306544
 C         23.176396   -0.933948    0.349137
 C         23.700741    0.334061    0.315717
 S         22.469024    1.542243    0.231022
 H         21.153933   -1.847552    0.322840
 H         23.785745   -1.829206    0.402619
 C         11.148769   -0.723447   -0.044670
 C         10.574858   -1.997524   -0.042915
 C          9.178971   -1.994478   -0.083146
 C          8.612386   -0.715862   -0.117001
 S          9.886074    0.505642   -0.098583
 H         11.167414   -2.905627   -0.013377
 C         16.439922   -3.194337    0.226721
 H         15.799549   -3.309273    1.106593
 H         15.856804   -3.381880   -0.680054
 H         17.252197   -3.920908    0.282070
 C         19.812862    3.146383    0.089093
 H         20.451198    3.262128   -0.792128
 H         20.399863    3.329445    0.994213
 H         19.001424    3.874109    0.038270
 H         24.740628    0.632511    0.335629
 C          7.242376   -0.349579   -0.156244
 C          6.677434    0.933186   -0.177118
 S          5.972093   -1.567331   -0.180665
 C          5.288346    0.946777   -0.208399
 H          7.280087    1.835151   -0.166993
 C          4.701917   -0.333558   -0.214901
 H          4.681063    1.846302   -0.223913
 C          3.311212   -0.583364   -0.237790
 C          2.267109    0.376917   -0.242381
 N          2.683016   -1.829763   -0.253752
 C          2.031172    1.807443   -0.225747
 C          1.027203   -0.278206   -0.256385
 C          1.263763   -1.709032   -0.266103
 C          3.295189   -3.148180   -0.268331
 N          0.612124    1.928363   -0.227798
 O          2.784722    2.782568   -0.214050
 C         -0.016782    0.681809   -0.244638
 O          0.510738   -2.684255   -0.283294
 H          3.890974   -3.322124    0.632801
 H          3.919937   -3.287714   -1.155654
 H          2.474574   -3.866750   -0.294750
 C          0.000479    3.247021   -0.221969
 C         -1.407348    0.431659   -0.242752
 H         -0.614436    3.405325   -1.113023
 H         -0.604972    3.402997    0.676046
 H          0.821686    3.965427   -0.224671
 C         -1.993663   -0.849517   -0.268067
 S         -2.677357    1.664599   -0.198633
 C         -3.381968   -0.836945   -0.251748
 H         -1.385665   -1.748231   -0.294672
 C         -3.948562    0.445930   -0.211933
 H         -3.984308   -1.739091   -0.265876
 C         -5.316956    0.809862   -0.179260
 C         -5.884527    2.090191   -0.128652
 S         -6.590768   -0.411763   -0.192086
 C         -7.278164    2.093462   -0.099408
 H         -5.285555    2.994253   -0.112701
 C         -7.854452    0.817861   -0.126715
 H          8.581054   -2.899458   -0.087016
 H         -7.870793    3.001103   -0.059091
 C         -9.227406    0.461247   -0.105880
 C         -9.801340   -0.816305   -0.145073
 S        -10.487969    1.685375   -0.017082
 C        -11.192069   -0.818702   -0.106533
 H         -9.206610   -1.721669   -0.201507
 C        -11.765215    0.461989   -0.034109
 H        -11.806275   -1.713350   -0.128900
 C        -13.158934    0.720572    0.019321
 C        -14.203374   -0.229334    0.006949
 N        -13.773303    1.971581    0.097393
 C        -14.452498   -1.653138   -0.052279
 C        -15.443018    0.436710    0.078100
 C        -15.195128    1.862218    0.137669
 C        -13.149313    3.283787    0.141336
 N        -15.878023   -1.760342   -0.011290
 O        -13.714179   -2.636843   -0.122765
 C        -16.486687   -0.510766    0.067901
 O        -15.937733    2.842322    0.207704
 H        -12.564308    3.478466   -0.762558
 H        -12.512107    3.394011    1.023991
 H        -13.963646    4.007701    0.199376
 C        -16.503348   -3.071891   -0.055708
 C        -17.886844   -0.248631    0.128467
 H        -17.085224   -3.267806    0.849954
 H        -17.144198   -3.179060   -0.936095
 H        -15.689818   -3.796289   -0.118457
 C        -18.458440    1.023833    0.206906
 S        -19.161322   -1.473265    0.119701
 C        -19.858514    1.013333    0.257849
 H        -17.849231    1.921885    0.225700
 C        -20.418441   -0.258158    0.221268
 H        -20.456251    1.916329    0.320717
 C        -21.808211   -0.633926    0.256520
 C        -22.371224   -1.897596    0.220248
 S        -23.073009    0.586097    0.360421
 C        -23.789957   -1.889239    0.274404
 H        -21.781062   -2.805700    0.156367
 C        -24.312535   -0.624793    0.352007
 H        -24.398656   -2.786312    0.256441
 H        -25.351632   -0.328742    0.404679
