       148
S0: Total Energy = -7282.01431177
 C        -13.569608   -3.690642    0.116832
 C        -12.288400   -3.181917    0.348561
 C        -12.131080   -1.785958    0.180376
 C        -13.245369   -0.976751   -0.191464
 C        -14.531189   -1.482178   -0.399233
 C        -14.685864   -2.878771   -0.245534
 C        -15.884393   -3.663780   -0.415626
 H        -16.837156   -3.239492   -0.708303
 C        -15.696666   -4.985434   -0.175499
 S        -14.049967   -5.384835    0.265626
 C        -11.101585    0.337087    0.132300
 S        -12.781468    0.721117   -0.298940
 C        -10.937961   -1.008333    0.342250
 H         -9.986517   -1.445068    0.621453
 H        -16.431823   -5.777504   -0.237531
 C        -10.073664    1.357717    0.175373
 C        -10.157986    2.733082    0.355069
 S         -8.399708    0.857884   -0.022166
 C         -8.881036    3.356204    0.351234
 C         -7.810182    2.502465    0.172393
 H         -8.749889    4.420991    0.489331
 C         -6.385576    2.790707    0.131503
 C         -5.423206    1.790192    0.089353
 C         -5.859018    4.135052    0.124170
 C         -4.034419    2.034344    0.035557
 C         -4.421654    4.387792    0.072744
 C         -3.469624    3.303230    0.027764
 N         -6.585348    5.256239    0.159332
 N         -4.119913    5.689596    0.074715
 C         -2.032524    3.517709   -0.017291
 C         -1.316590    4.689339   -0.166272
 S         -0.918120    2.166052    0.125437
 C          0.095588    4.538123   -0.186834
 H         -1.802886    5.650048   -0.269033
 C          0.486591    3.210293   -0.051085
 C          1.797876    2.597145   -0.035079
 C          2.087672    1.264915   -0.198601
 S          3.274255    3.542449    0.255121
 C          3.477179    0.939259   -0.091187
 H          1.327633    0.522062   -0.409597
 C          4.277930    2.097761    0.139464
 C          4.083162   -0.335999   -0.200087
 C          5.666464    2.062367    0.278318
 C          5.473728   -0.368820   -0.080537
 C          6.273412    0.788589    0.159794
 S          6.474004   -1.819176   -0.151957
 C          7.664563    0.465161    0.255207
 C          7.951408   -0.870232    0.118777
 H          8.428577    1.212292    0.434190
 C          9.262822   -1.484430    0.125372
 C          9.655601   -2.801913    0.331031
 S         10.661553   -0.457746   -0.162782
 C         11.066573   -2.959145    0.273378
 C         11.778259   -1.801590    0.027616
 H         11.554911   -3.913039    0.420519
 C         13.214171   -1.594939   -0.080363
 C         13.778657   -0.332900   -0.202679
 C         14.164383   -2.681713   -0.073327
 C         15.166314   -0.097504   -0.319779
 C         15.599526   -2.436852   -0.191135
 N         13.862624   -3.979141    0.034355
 C         16.126233   -1.099086   -0.319317
 N         16.323836   -3.560250   -0.165291
 C         17.552202   -0.818003   -0.436262
 C         18.620607   -1.687032   -0.514389
 S         18.137869    0.845976   -0.502032
 C         19.896153   -1.051600   -0.628443
 H         18.490691   -2.760800   -0.490742
 C         19.782470    0.313772   -0.634469
 H         20.576592    1.045681   -0.708029
 S         -5.535875    6.518108    0.132942
 S         15.275806   -4.813058   -0.007745
 C        -11.424621    3.525574    0.558848
 H        -11.985897    3.645961   -0.376184
 H        -12.095395    3.050651    1.281986
 H        -11.185879    4.527660    0.927398
 C          1.012482    5.722855   -0.358454
 H          1.561103    5.952812    0.563234
 H          1.754781    5.558098   -1.146544
 H          0.431829    6.611224   -0.623719
 C          8.741349   -3.968345    0.609123
 H          8.000087   -3.735691    1.380662
 H          8.191486   -4.279664   -0.287767
 H          9.323784   -4.829255    0.950366
 C         21.197455   -1.802283   -0.728955
 H         21.358827   -2.437056    0.150921
 H         21.210213   -2.459399   -1.607126
 H         22.046457   -1.116980   -0.809485
 C          3.278041   -1.569171   -0.419046
 C          3.485901   -2.378368   -1.547613
 C          2.287596   -1.956471    0.497891
 C          2.730217   -3.532755   -1.747548
 H          4.230890   -2.089984   -2.283843
 C          1.536591   -3.112591    0.292100
 H          2.112350   -1.350926    1.382866
 C          1.745039   -3.924284   -0.831265
 H          2.904624   -4.135591   -2.635951
 H          0.777331   -3.390681    1.019615
 C          6.466787    3.289447    0.546513
 C          6.470519    4.362170   -0.359142
 C          7.241027    3.406179    1.712180
 C          7.221449    5.509057   -0.104484
 H          5.896569    4.288938   -1.278639
 C          7.988546    4.556088    1.960736
 H          7.249353    2.592431    2.432137
 C          7.990752    5.630193    1.060252
 H          7.214805    6.321054   -0.828156
 H          8.578052    4.621034    2.872531
 C        -11.153581   -4.054032    0.759319
 C        -10.482439   -3.840737    1.974154
 C        -10.723087   -5.113480   -0.055411
 C         -9.422088   -4.660107    2.358127
 H        -10.801283   -3.032124    2.626118
 C         -9.661054   -5.928219    0.334336
 H        -11.211635   -5.287844   -1.009913
 C         -8.993258   -5.720687    1.548623
 H         -8.921488   -4.473938    3.305670
 H         -9.341433   -6.735411   -0.320967
 C        -15.679339   -0.601583   -0.752634
 C        -15.659720    0.182040   -1.917183
 C        -16.810916   -0.525327    0.075525
 C        -16.734279    1.010545   -2.238880
 H        -14.801572    0.133477   -2.581616
 C        -17.881057    0.305468   -0.251731
 H        -16.842745   -1.109309    0.991273
 C        -17.865280    1.086460   -1.415659
 H        -16.693737    1.605319   -3.148623
 H        -18.740963    0.353172    0.412734
 H         15.480717    0.937659   -0.414416
 H         13.131398    0.539186   -0.205999
 H         -3.384532    1.165248   -0.006047
 H         -5.738901    0.751130    0.100426
 C          0.950345   -5.192585   -1.035822
 H         -0.039147   -5.124972   -0.571719
 H          0.813877   -5.412386   -2.099935
 H          1.460997   -6.056116   -0.588918
 C          8.778030    6.886910    1.348154
 H          8.178415    7.607057    1.920870
 H          9.675426    6.671587    1.937718
 H          9.088318    7.385691    0.424033
 C         -7.864102   -6.625795    1.982071
 H         -7.309317   -7.014426    1.121540
 H         -7.158218   -6.101668    2.634854
 H         -8.243187   -7.491498    2.541555
 C        -19.040427    1.962242   -1.782055
 H        -18.727383    2.821340   -2.384442
 H        -19.781847    1.405140   -2.370434
 H        -19.552205    2.339291   -0.890272
       148
T1: Total Energy = -7281.97566145
 C        -13.466449   -3.731397   -0.190662
 C        -12.166990   -3.223282   -0.122218
 C        -12.047563   -1.810679   -0.140734
 C        -13.214467   -0.990503   -0.214713
 C        -14.512229   -1.499168   -0.263767
 C        -14.632016   -2.909455   -0.255028
 C        -15.837849   -3.696357   -0.308811
 H        -16.828521   -3.263923   -0.378709
 C        -15.606481   -5.033253   -0.265785
 S        -13.908261   -5.442411   -0.166687
 C        -11.050078    0.334624   -0.116734
 S        -12.786650    0.720130   -0.195073
 C        -10.852777   -1.033427   -0.101316
 H         -9.867132   -1.481551   -0.065095
 H        -16.339105   -5.829544   -0.295088
 C        -10.033731    1.343647   -0.087900
 C        -10.123822    2.750125   -0.081840
 S         -8.344070    0.834907   -0.049390
 C         -8.870483    3.372922   -0.047090
 C         -7.764634    2.506821   -0.024867
 H         -8.740504    4.446288   -0.036896
 C         -6.379878    2.805601    0.010239
 C         -5.390522    1.767312    0.030319
 C         -5.863558    4.158749    0.027464
 C         -4.042620    2.007290    0.063986
 C         -4.425119    4.415888    0.063167
 C         -3.472333    3.324122    0.082806
 N         -6.601060    5.266695    0.012943
 N         -4.116921    5.710288    0.074401
 C         -2.072051    3.521516    0.117320
 C         -1.333412    4.719348    0.141249
 S         -0.948874    2.153472    0.135316
 C          0.055290    4.570653    0.171946
 H         -1.829101    5.680240    0.136491
 C          0.460995    3.217423    0.173679
 C          1.760767    2.627509    0.202703
 C          2.050815    1.272111    0.219205
 S          3.259177    3.590098    0.208491
 C          3.436902    0.958110    0.246562
 H          1.280315    0.510614    0.210239
 C          4.252499    2.132766    0.224766
 C          4.037684   -0.328325    0.284712
 C          5.644490    2.105606    0.245737
 C          5.431384   -0.354348    0.283238
 C          6.244997    0.819737    0.269690
 S          6.428082   -1.807415    0.347922
 C          7.636244    0.503758    0.287369
 C          7.919055   -0.842359    0.333224
 H          8.408185    1.263948    0.277706
 C          9.227927   -1.454499    0.327356
 C          9.632976   -2.755854    0.611161
 S         10.613256   -0.453752   -0.094128
 C         11.038702   -2.919293    0.501390
 C         11.737655   -1.783932    0.139298
 H         11.534361   -3.861261    0.693375
 C         13.166052   -1.591044   -0.052247
 C         13.721086   -0.346529   -0.318032
 C         14.118480   -2.673980    0.014472
 C         15.100982   -0.125005   -0.518705
 C         15.546049   -2.443015   -0.189919
 N         13.825995   -3.954972    0.257993
 C         16.062733   -1.123870   -0.466455
 N         16.274437   -3.559521   -0.089910
 C         17.480985   -0.857105   -0.672073
 C         18.542167   -1.734824   -0.753952
 S         18.065354    0.797041   -0.867295
 C         19.810709   -1.113893   -0.974038
 H         18.411810   -2.804567   -0.658389
 C         19.699151    0.249402   -1.055820
 H         20.489669    0.971543   -1.214953
 S         -5.551037    6.562663    0.042257
 S         15.238679   -4.790724    0.232045
 C        -11.401423    3.547932   -0.106765
 H        -11.987775    3.352912   -1.012213
 H        -12.042864    3.320712    0.752542
 H        -11.174727    4.617325   -0.080422
 C          0.977941    5.760650    0.201587
 H          1.614907    5.762257    1.093680
 H          1.639777    5.786453   -0.671924
 H          0.394902    6.685635    0.205833
 C          8.735843   -3.899265    1.011591
 H          8.073094   -3.631661    1.841624
 H          8.100635   -4.231326    0.181211
 H          9.338255   -4.756256    1.326417
 C         21.103505   -1.875496   -1.098948
 H         21.311027   -2.456963   -0.192334
 H         21.067833   -2.584233   -1.935322
 H         21.947951   -1.200331   -1.266148
 C          3.220657   -1.571211    0.332325
 C          3.332622   -2.548940   -0.669229
 C          2.315282   -1.799930    1.381500
 C          2.566678   -3.712754   -0.619082
 H          4.008643   -2.386455   -1.503931
 C          1.554440   -2.966715    1.425776
 H          2.215871   -1.062205    2.172953
 C          1.667232   -3.946312    0.429542
 H          2.664641   -4.448579   -1.413974
 H          0.862937   -3.120127    2.251169
 C          6.462038    3.350375    0.251198
 C          6.381945    4.271913   -0.804928
 C          7.335594    3.635417    1.312972
 C          7.147981    5.436787   -0.795163
 H          5.729613    4.064830   -1.648634
 C          8.097662    4.802500    1.316323
 H          7.410363    2.941173    2.145480
 C          8.016430    5.726514    0.265558
 H          7.074510    6.128933   -1.630933
 H          8.764929    5.000219    2.152184
 C        -10.974073   -4.107633   -0.025555
 C        -10.092975   -4.015467    1.064372
 C        -10.696208   -5.058265   -1.020930
 C         -8.978105   -4.847061    1.153450
 H        -10.290396   -3.293806    1.852246
 C         -9.577975   -5.885317   -0.925961
 H        -11.349356   -5.135592   -1.885484
 C         -8.700547   -5.799216    0.163021
 H         -8.313728   -4.756648    2.009883
 H         -9.380217   -6.605287   -1.716830
 C        -15.708958   -0.613304   -0.311938
 C        -15.897436    0.290659   -1.369250
 C        -16.677855   -0.654207    0.703491
 C        -17.016156    1.122108   -1.406820
 H        -15.168279    0.334617   -2.173414
 C        -17.793299    0.180490    0.659898
 H        -16.545805   -1.333628    1.541118
 C        -17.985910    1.081508   -0.396418
 H        -17.138831    1.811749   -2.238908
 H        -18.523688    0.135703    1.464666
 H         15.407921    0.895512   -0.727457
 H         13.071781    0.522034   -0.377036
 H         -3.373683    1.152179    0.076812
 H         -5.723003    0.733792    0.018007
 C          0.862571   -5.222837    0.497345
 H         -0.097232   -5.065165    1.000382
 H          0.662809   -5.623907   -0.501773
 H          1.399591   -5.999472    1.058224
 C          8.821168    7.004684    0.287657
 H          8.263833    7.814515    0.777192
 H          9.759304    6.878122    0.838086
 H          9.062455    7.343672   -0.725249
 C         -7.507669   -6.718689    0.278455
 H         -7.136916   -7.019485   -0.707009
 H         -6.685208   -6.241629    0.821753
 H         -7.767076   -7.636791    0.822465
 C        -19.211919    1.962087   -0.455868
 H        -19.008365    2.896711   -0.988772
 H        -20.034915    1.460295   -0.982279
 H        -19.573922    2.212905    0.546742
       148
S1: Total Energy = -7281.95680685
 C        -13.518517   -3.697744   -0.125368
 C        -12.214054   -3.201196   -0.065401
 C        -12.082149   -1.788645   -0.063920
 C        -13.244291   -0.958987   -0.110366
 C        -14.546251   -1.456466   -0.150174
 C        -14.678303   -2.866291   -0.161919
 C        -15.890763   -3.642264   -0.212209
 H        -16.878655   -3.200732   -0.262768
 C        -15.670675   -4.982018   -0.192325
 S        -13.974730   -5.405903   -0.121287
 C        -11.067376    0.347122   -0.019451
 S        -12.800690    0.747360   -0.069226
 C        -10.881258   -1.021107   -0.027774
 H         -9.898475   -1.476577   -0.010318
 H        -16.410356   -5.771631   -0.224322
 C        -10.044484    1.355262    0.009595
 C        -10.126000    2.753032    0.052743
 S         -8.357420    0.840989   -0.006294
 C         -8.858473    3.371084    0.072999
 C         -7.770332    2.503652    0.046933
 H         -8.723155    4.443423    0.107080
 C         -6.361266    2.791280    0.055444
 C         -5.395047    1.763036    0.029152
 C         -5.843139    4.136801    0.089316
 C         -4.027481    2.001762    0.034208
 C         -4.405982    4.387480    0.093469
 C         -3.465783    3.295846    0.065509
 N         -6.582004    5.253326    0.118947
 N         -4.088112    5.688130    0.125801
 C         -2.042413    3.500119    0.068953
 C         -1.314583    4.691156    0.085562
 S         -0.928963    2.135422    0.049373
 C          0.082682    4.543482    0.082202
 H         -1.811769    5.651077    0.100016
 C          0.486452    3.195456    0.063586
 C          1.781993    2.604721    0.059773
 C          2.071907    1.240789    0.062064
 S          3.278063    3.561055    0.041595
 C          3.447220    0.926389    0.060459
 H          1.297130    0.483994    0.065812
 C          4.270566    2.100803    0.028841
 C          4.047825   -0.369678    0.080612
 C          5.656660    2.070653    0.022351
 C          5.435576   -0.399011    0.055630
 C          6.256680    0.774688    0.030943
 S          6.429701   -1.856977    0.095313
 C          7.634128    0.459845    0.014885
 C          7.922512   -0.899289    0.051101
 H          8.406940    1.218229   -0.020058
 C          9.223645   -1.493701    0.045721
 C          9.623968   -2.836381    0.109101
 S         10.634180   -0.437359   -0.049065
 C         11.026546   -2.982145    0.082149
 C         11.746268   -1.797478   -0.001621
 H         11.517912   -3.944516    0.124200
 C         13.176661   -1.588260   -0.050160
 C         13.740996   -0.316195   -0.142146
 C         14.129599   -2.672865   -0.007137
 C         15.124711   -0.074682   -0.190258
 C         15.567012   -2.418958   -0.057034
 N         13.829465   -3.971525    0.079556
 C         16.090808   -1.077623   -0.151841
 N         16.297235   -3.537880   -0.006177
 C         17.514616   -0.788621   -0.203596
 C         18.594734   -1.649368   -0.162238
 S         18.091634    0.875847   -0.338454
 C         19.868069   -1.007682   -0.235125
 H         18.470938   -2.720985   -0.080814
 C         19.744017    0.354621   -0.333132
 H         20.536190    1.089009   -0.403516
 S         -5.521690    6.535558    0.149710
 S         15.250569   -4.800836    0.096300
 C        -11.395698    3.564235    0.079462
 H        -12.001430    3.408235   -0.821087
 H        -12.024795    3.314887    0.941919
 H        -11.157232    4.629919    0.138511
 C          1.002577    5.734810    0.099329
 H          1.660176    5.731832    0.976817
 H          1.645059    5.768279   -0.788746
 H          0.418726    6.658865    0.123222
 C          8.708038   -4.027895    0.199751
 H          8.069437   -3.987302    1.089989
 H          8.047397   -4.103697   -0.672067
 H          9.294996   -4.948870    0.252835
 C         21.179741   -1.746331   -0.206854
 H         21.287717   -2.328023    0.716698
 H         21.256015   -2.451864   -1.043174
 H         22.026100   -1.056123   -0.270665
 C          3.224934   -1.606978    0.133054
 C          3.326213   -2.584713   -0.869556
 C          2.324963   -1.831082    1.188743
 C          2.554880   -3.744880   -0.814414
 H          3.995473   -2.424407   -1.710059
 C          1.560567   -2.994512    1.238154
 H          2.234122   -1.093717    1.981435
 C          1.661960   -3.974495    0.240257
 H          2.643136   -4.480358   -1.610582
 H          0.874433   -3.145235    2.068387
 C          6.481788    3.308663    0.013084
 C          6.370802    4.241480   -1.030620
 C          7.392088    3.577049    1.048352
 C          7.143518    5.401590   -1.034380
 H          5.690615    4.046161   -1.854780
 C          8.158698    4.740837    1.038685
 H          7.489707    2.875228    1.872020
 C          8.047732    5.675974    0.000416
 H          7.046527    6.102357   -1.860334
 H          8.853038    4.927423    1.854644
 C        -11.027976   -4.096685    0.003453
 C        -10.127613   -4.021888    1.079118
 C        -10.775108   -5.041856   -1.003956
 C         -9.019520   -4.864629    1.143047
 H        -10.304785   -3.304641    1.875720
 C         -9.663428   -5.880165   -0.934298
 H        -11.442665   -5.105566   -1.858538
 C         -8.767361   -5.811357    0.140630
 H         -8.340207   -4.787280    1.989012
 H         -9.485520   -6.595181   -1.734387
 C        -15.736442   -0.560899   -0.169233
 C        -15.929806    0.363198   -1.208239
 C        -16.694407   -0.612327    0.856023
 C        -17.042330    1.203560   -1.218611
 H        -15.209071    0.416066   -2.019393
 C        -17.803794    0.231500    0.839746
 H        -16.558192   -1.307212    1.680186
 C        -18.001173    1.152444   -0.198227
 H        -17.168705    1.908905   -2.036900
 H        -18.525414    0.178151    1.651892
 H         15.440968    0.961701   -0.260673
 H         13.088732    0.551361   -0.180123
 H         -3.366574    1.140067    0.010900
 H         -5.725857    0.729059    0.003063
 C          0.849818   -5.245619    0.314092
 H         -0.135360   -5.066130    0.757539
 H          0.703246   -5.685313   -0.677654
 H          1.351989   -5.999448    0.935036
 C          8.858996    6.949876    0.009005
 H          8.313787    7.761325    0.509239
 H          9.806093    6.818190    0.542386
 H          9.083162    7.288943   -1.007758
 C         -7.581541   -6.742895    0.228948
 H         -7.228912   -7.037812   -0.764945
 H         -6.746282   -6.278514    0.763680
 H         -7.840851   -7.663753    0.768416
 C        -19.220655    2.043551   -0.228600
 H        -19.010704    2.992733   -0.732635
 H        -20.048087    1.564720   -0.769303
 H        -19.579412    2.266002    0.781810
