       140
S0: Total Energy = -11898.1070411
 C          0.645050    0.576740    0.132569
 C          0.825233   -0.805721    0.111563
 C          2.174302   -1.225756    0.100507
 C          3.054754   -0.157338    0.114168
 S          2.181515    1.397315    0.138481
 H          2.509335   -2.252906    0.083555
 C          4.507906   -0.168754    0.111479
 C          5.281566   -1.387471    0.066795
 N          4.782210   -2.626052    0.024918
 S          6.051863   -3.664884   -0.015246
 N          7.283887   -2.581546    0.018920
 C          6.741036   -1.361476    0.063030
 C          7.471267   -0.116099    0.104504
 C          6.674520    1.021115    0.146873
 C          5.264073    0.995966    0.150707
 C          8.923167   -0.053492    0.102553
 C          9.840230   -1.088640    0.039420
 C         11.174022   -0.622260    0.059595
 C         11.305817    0.763384    0.138284
 S          9.741811    1.528500    0.189158
 H          9.541047   -2.125363   -0.017723
 C         12.642071    1.224965    0.152577
 H         12.935285    2.267573    0.195453
 C         -0.706086    0.991566    0.138610
 H         -1.034592    2.024522    0.143289
 C         13.549856    0.184168    0.084479
 C         -1.577755   -0.082428    0.123314
 S         12.739377   -1.392309    0.011558
 S         -0.712090   -1.631409    0.107936
 C         14.991757    0.262344    0.070297
 C         15.894877   -0.731027   -0.200712
 S         15.796266    1.798171    0.440233
 C         17.265174   -0.313956   -0.131049
 H         15.596482   -1.736154   -0.473173
 C         17.382456    1.069034    0.197179
 C         18.426622   -1.079008   -0.396433
 C         18.604783    1.744661    0.267360
 C         19.651753   -0.402142   -0.325151
 C         18.370813   -2.512654   -0.732947
 C         19.767282    0.980100    0.003193
 C         18.659076    3.179615    0.602673
 S         21.242586   -1.127382   -0.557418
 C         18.917035   -3.144827   -1.828121
 S         17.609994   -3.684872    0.326395
 C         21.144935    1.400339    0.065367
 C         18.129010    3.809784    1.706637
 S         19.397851    4.353429   -0.469480
 C         22.019590    0.399659   -0.207294
 C         18.732137   -4.555028   -1.827358
 H         19.424120   -2.606531   -2.621338
 C         18.049696   -5.016068   -0.727512
 H         21.453622    2.407813    0.314672
 C         18.308532    5.220988    1.702158
 H         17.637602    3.269778    2.508624
 C         18.971011    5.683847    0.591030
 H         23.100223    0.457426   -0.226171
 H         19.084376   -5.212536   -2.614357
 S         17.559643   -6.678133   -0.385139
 H         17.967000    5.877586    2.494632
 S         19.450004    7.347411    0.240099
 C         18.834267   -7.206617    0.831293
 C         18.153566    7.872048   -0.954721
 H         18.599528   -8.243600    1.086706
 H         19.831703   -7.156663    0.389620
 H         18.788761   -6.593847    1.734155
 H         17.163891    7.819355   -0.496226
 H         18.380903    8.909681   -1.214137
 H         18.185526    7.259285   -1.858172
 C         -3.020540   -0.055716    0.120242
 S         -3.877234    1.480448    0.339900
 C         -3.891128   -1.103216   -0.035509
 C         -5.437777    0.674447    0.197778
 C         -5.272759   -0.729673    0.010291
 H         -3.560124   -2.120992   -0.203458
 C         -6.682873    1.310476    0.216367
 C         -6.409928   -1.559948   -0.157984
 C         -7.819940    0.480307    0.047702
 C         -6.787942    2.768526    0.403954
 C         -7.655056   -0.923913   -0.139442
 C         -6.304781   -3.017989   -0.345464
 C         -9.201431    0.854235    0.092918
 C         -6.263568    3.528561    1.425984
 S         -7.590218    3.797618   -0.767402
 S         -9.215963   -1.729433   -0.282083
 C         -6.830041   -3.778283   -1.366857
 S         -5.500954   -4.046746    0.825130
 C        -10.072255   -0.193003   -0.062912
 H         -9.532295    1.871986    0.261198
 C         -6.496790    4.924127    1.279925
 H         -5.738473    3.092860    2.268985
 C         -7.195780    5.245036    0.141396
 C         -6.596206   -5.173753   -1.220936
 H         -7.356146   -3.342839   -2.209357
 C         -5.895889   -5.494362   -0.083138
 C        -11.515069   -0.164895   -0.067139
 H         -6.166845    5.671260    1.993108
 S         -7.745147    6.845072   -0.366454
 H         -6.926676   -5.921041   -1.933713
 S         -5.345535   -7.094164    0.424389
 C        -12.388691   -1.237292   -0.069724
 S        -12.377960    1.385714   -0.071585
 C         -6.505829    7.281223   -1.653831
 C         -6.584397   -7.531186    1.711914
 C        -13.739238   -0.819805   -0.069210
 H        -12.061979   -2.270813   -0.061078
 C        -13.916661    0.562948   -0.065431
 H         -6.777583    8.277950   -2.012093
 H         -5.501057    7.308593   -1.227046
 H         -6.544540    6.575995   -2.486838
 H         -7.589218   -7.559072    1.285281
 H         -6.312017   -8.527809    2.069989
 H         -6.545948   -6.826043    2.545005
 S        -15.277866   -1.636937   -0.065921
 C        -15.265106    0.986087   -0.060325
 C        -16.147658   -0.080212   -0.060383
 H        -15.597833    2.014103   -0.056964
 C        -17.601463   -0.065183   -0.056827
 C        -18.371637    1.156390   -0.053433
 C        -18.360833   -1.227723   -0.056327
 C        -19.831349    1.134374   -0.049772
 N        -17.868851    2.394358   -0.053249
 C        -19.772228   -1.248737   -0.052745
 C        -20.565453   -0.109256   -0.049429
 N        -20.370838    2.356960   -0.046996
 S        -19.135918    3.437273   -0.048847
 C        -22.019201   -0.167163   -0.045937
 C        -22.932696    0.870016   -0.041500
 S        -22.843171   -1.749296   -0.047182
 C        -24.271020    0.405663   -0.039030
 H        -22.631911    1.907908   -0.040142
 C        -24.405722   -0.979919   -0.041548
 S        -25.839601    1.175283   -0.033428
 C        -25.753673   -1.438115   -0.039070
 C        -26.629976   -0.386849   -0.034666
 H        -26.060734   -2.477258   -0.040457
 H        -27.711021   -0.430848   -0.031999
 H          7.145164    1.999215    0.178542
 H          4.759225    1.956617    0.187446
 H        -17.858915   -2.190677   -0.058787
 H        -20.245684   -2.225963   -0.052621
       140
T1: Total Energy = -11898.0672193
 C         -0.667293    0.554062   -0.226389
 C         -0.853159   -0.831240   -0.035189
 C         -2.180770   -1.247649    0.020904
 C         -3.085694   -0.174968   -0.128439
 S         -2.201984    1.374334   -0.341793
 H         -2.525477   -2.261963    0.161258
 C         -4.499640   -0.196975   -0.124550
 C         -5.270333   -1.412140    0.049835
 N         -4.762693   -2.630060    0.219244
 S         -6.044227   -3.686374    0.375018
 N         -7.284194   -2.581042    0.225540
 C         -6.730253   -1.383576    0.053319
 C         -7.453901   -0.140029   -0.118654
 C         -6.638848    1.029054   -0.291164
 C         -5.270275    1.002957   -0.293656
 C         -8.867456   -0.064019   -0.117481
 C         -9.810874   -1.099308    0.043243
 C        -11.123232   -0.632249   -0.009936
 C        -11.256085    0.756079   -0.211038
 S         -9.692008    1.516000   -0.339003
 H         -9.504836   -2.125112    0.189629
 C        -12.579633    1.212350   -0.258998
 H        -12.871877    2.246492   -0.400113
 C          0.670713    0.959257   -0.277477
 H          1.001607    1.982351   -0.414301
 C        -13.499870    0.179698   -0.094520
 C          1.553209   -0.110405   -0.126180
 S        -12.693691   -1.390456    0.118481
 S          0.687557   -1.650486    0.079667
 C        -14.930928    0.270457   -0.082732
 C        -15.845232   -0.731388    0.145136
 S        -15.729304    1.826212   -0.385510
 C        -17.208983   -0.305318    0.089175
 H        -15.553384   -1.750284    0.369035
 C        -17.318806    1.091958   -0.182797
 C        -18.376434   -1.076739    0.316961
 C        -18.536701    1.774888   -0.229848
 C        -19.597077   -0.390975    0.269536
 C        -18.328331   -2.522981    0.592572
 C        -19.704271    1.004813   -0.001483
 C        -18.584041    3.222638   -0.506325
 S        -21.192717   -1.116796    0.464252
 C        -18.888327   -3.198526    1.654632
 S        -17.559298   -3.652637   -0.506679
 C        -21.078327    1.434505   -0.051113
 C        -18.054555    3.893645   -1.586188
 S        -19.313354    4.355850    0.614648
 C        -21.959545    0.427331    0.175867
 C        -18.707173   -4.607847    1.597040
 H        -19.401698   -2.692275    2.464693
 C        -18.014211   -5.024880    0.486194
 H        -21.380845    2.453164   -0.258944
 C        -18.227386    5.304341   -1.524741
 H        -17.568568    3.383708   -2.410861
 C        -18.883887    5.725429   -0.393626
 H        -23.039919    0.490380    0.192907
 H        -19.069365   -5.296433    2.352253
 S        -17.524846   -6.672723    0.079999
 H        -17.885584    5.990524   -2.291593
 S        -19.353504    7.375829    0.025699
 C        -18.789446   -7.146864   -1.168848
 C        -18.044726    7.849185    1.228462
 H        -18.553709   -8.172525   -1.465670
 H        -19.790711   -7.113922   -0.734323
 H        -18.734899   -6.496652   -2.044595
 H        -17.059375    7.811857    0.759301
 H        -18.266507    8.876437    1.530521
 H        -18.070606    7.201392    2.107315
 C          2.983831   -0.074854   -0.122362
 S          3.841693    1.457968   -0.374198
 C          3.862113   -1.120528    0.061705
 C          5.401910    0.654547   -0.214307
 C          5.237730   -0.746797    0.008094
 H          3.532213   -2.135150    0.249335
 C          6.644819    1.290309   -0.247912
 C          6.377848   -1.573334    0.195349
 C          7.783809    0.464577   -0.058649
 C          6.749621    2.743371   -0.471127
 C          7.620740   -0.936062    0.161952
 C          6.273904   -3.026076    0.416245
 C          9.162321    0.839453   -0.112555
 C          6.229363    3.476913   -1.514345
 S          7.546193    3.802008    0.677570
 S          9.183282   -1.735395    0.321994
 C          6.809622   -3.763035    1.449525
 S          5.458446   -4.081455   -0.722612
 C         10.036458   -0.203274    0.067335
 H          9.491371    1.853590   -0.304319
 C          6.460917    4.875904   -1.402259
 H          5.708411    3.019803   -2.348551
 C          7.154688    5.225785   -0.269108
 C          6.574740   -5.161271    1.337638
 H          7.343152   -3.308713    2.277229
 C          5.863328   -5.507774    0.214345
 C         11.477719   -0.170987    0.070070
 H          6.133613    5.604697   -2.135324
 S          7.701466    6.838509    0.200021
 H          6.912312   -5.892148    2.063922
 S          5.308417   -7.118843   -0.250829
 C         12.354658   -1.241215    0.102950
 S         12.336985    1.381426    0.029250
 C          6.459697    7.304857    1.474357
 C          6.532160   -7.583039   -1.543288
 C         13.703316   -0.820751    0.089719
 H         12.030566   -2.275386    0.124138
 C         13.877232    0.562371    0.046501
 H          6.729487    8.310730    1.807629
 H          5.455483    7.319887    1.045682
 H          6.498482    6.621022    2.324991
 H          7.542190   -7.599817   -1.128560
 H          6.256989   -8.587945   -1.875042
 H          6.482081   -6.897260   -2.391768
 S         15.244089   -1.633717    0.109328
 C         15.224248    0.988505    0.029266
 C         16.109542   -0.075432    0.059239
 H         15.554560    2.016785   -0.003040
 C         17.563093   -0.056450    0.054354
 C         18.329798    1.166884    0.023689
 C         18.325577   -1.216848    0.079008
 C         19.789484    1.148655    0.019747
 N         17.823683    2.403181   -0.003165
 C         19.736845   -1.234217    0.075200
 C         20.526984   -0.092773    0.046188
 N         20.325698    2.372285   -0.010012
 S         19.088010    3.449129   -0.031068
 C         21.980679   -0.146899    0.042615
 C         22.891439    0.892597    0.019819
 S         22.808890   -1.726564    0.070314
 C         24.230878    0.431897    0.024673
 H         22.587889    1.929510    0.000786
 C         24.369249   -0.953177    0.050848
 S         25.797392    1.205469    0.005084
 C         25.718371   -1.407753    0.055484
 C         26.591800   -0.354303    0.032628
 H         26.028244   -2.445880    0.074407
 H         27.672962   -0.395469    0.030194
 H         -7.127710    1.988873   -0.426317
 H         -4.745524    1.943251   -0.431135
 H         17.826216   -2.180855    0.102471
 H         20.212976   -2.209880    0.096581
       140
S1: Total Energy = -11898.0479974
 C         -0.648136    0.591039   -0.242066
 C         -0.835759   -0.793885   -0.057387
 C         -2.170645   -1.207490   -0.001310
 C         -3.063672   -0.138624   -0.142976
 S         -2.186124    1.408556   -0.350144
 H         -2.517479   -2.221610    0.135079
 C         -4.497300   -0.155012   -0.136467
 C         -5.259550   -1.368086    0.036259
 N         -4.745803   -2.591975    0.202164
 S         -6.027325   -3.640615    0.357104
 N         -7.271698   -2.548150    0.215106
 C         -6.717396   -1.342308    0.043448
 C         -7.439673   -0.104290   -0.123206
 C         -6.642947    1.049371   -0.291413
 C         -5.255677    1.025617   -0.297453
 C         -8.873694   -0.039456   -0.118170
 C         -9.800862   -1.071980    0.042636
 C        -11.124335   -0.610695   -0.007975
 C        -11.263389    0.771931   -0.207392
 S         -9.700709    1.533760   -0.336920
 H         -9.490768   -2.096803    0.187919
 C        -12.591926    1.223329   -0.253066
 H        -12.888546    2.256557   -0.392973
 C          0.687346    0.994445   -0.292858
 H          1.019700    2.017780   -0.425631
 C        -13.506078    0.187858   -0.087826
 C          1.572901   -0.079250   -0.147175
 S        -12.688994   -1.376839    0.122726
 S          0.698978   -1.618683    0.052069
 C        -14.937105    0.269935   -0.073697
 C        -15.847895   -0.735184    0.161004
 S        -15.744547    1.819575   -0.383980
 C        -17.212316   -0.317213    0.104259
 H        -15.549601   -1.750597    0.391835
 C        -17.330618    1.079130   -0.174531
 C        -18.377261   -1.093369    0.337685
 C        -18.551079    1.755454   -0.222157
 C        -19.601217   -0.413050    0.289079
 C        -18.322655   -2.537397    0.619115
 C        -19.715777    0.980678    0.011699
 C        -18.606399    3.201568   -0.504994
 S        -21.194174   -1.145308    0.487121
 C        -18.894169   -3.213654    1.675071
 S        -17.531148   -3.666860   -0.465317
 C        -21.091136    1.403550   -0.039904
 C        -18.079157    3.871267   -1.586815
 S        -19.343415    4.335524    0.610432
 C        -21.968475    0.393452    0.191957
 C        -18.705259   -4.621955    1.624012
 H        -19.420987   -2.708046    2.476823
 C        -17.994154   -5.038572    0.524395
 H        -21.398374    2.419773   -0.252831
 C        -18.259642    5.281213   -1.531287
 H        -17.589077    3.360652   -2.408622
 C        -18.919943    5.703341   -0.402764
 H        -23.049097    0.451831    0.209005
 H        -19.074740   -5.310280    2.375938
 S        -17.489459   -6.685076    0.132241
 H        -17.920315    5.966127   -2.300386
 S        -19.398291    7.352933    0.009715
 C        -18.719292   -7.163818   -1.149178
 C        -18.092681    7.837644    1.211437
 H        -18.474074   -8.189676   -1.437526
 H        -19.731946   -7.131615   -0.741796
 H        -18.642268   -6.515328   -2.024529
 H        -17.106879    7.803432    0.742988
 H        -18.319790    8.864899    1.509527
 H        -18.115766    7.192974    2.092664
 C          2.993172   -0.044614   -0.143405
 S          3.860064    1.484919   -0.378265
 C          3.876229   -1.101534    0.032373
 C          5.417216    0.671663   -0.224008
 C          5.241932   -0.736733   -0.017326
 H          3.538665   -2.114570    0.213845
 C          6.657716    1.299543   -0.243711
 C          6.383480   -1.576123    0.163815
 C          7.797940    0.460798   -0.060835
 C          6.774739    2.753378   -0.447422
 C          7.624951   -0.945635    0.143686
 C          6.268861   -3.029035    0.364806
 C          9.166275    0.828275   -0.109048
 C          6.250144    3.505585   -1.475524
 S          7.592540    3.789578    0.707403
 S          9.184684   -1.755526    0.293994
 C          6.820144   -3.786257    1.376017
 S          5.420819   -4.061680   -0.772437
 C         10.046098   -0.225031    0.062827
 H          9.500579    1.843142   -0.287121
 C          6.495272    4.900523   -1.346902
 H          5.717991    3.064557   -2.311274
 C          7.203425    5.228894   -0.216120
 C          6.572568   -5.180318    1.247763
 H          7.371443   -3.348821    2.201131
 C          5.835723   -5.504408    0.133949
 C         11.474656   -0.187694    0.068225
 H          6.167186    5.641943   -2.066766
 S          7.767642    6.830135    0.271449
 H          6.918670   -5.924554    1.956181
 S          5.259288   -7.104102   -0.343997
 C         12.359168   -1.257152    0.181809
 S         12.336766    1.360478   -0.081605
 C          6.533255    7.292385    1.554526
 C          6.451295   -7.555431   -1.670326
 C         13.699325   -0.840244    0.145464
 H         12.034223   -2.286505    0.280349
 C         13.875092    0.543629    0.005072
 H          6.813651    8.291474    1.899144
 H          5.528372    7.322413    1.128325
 H          6.567607    6.597836    2.396600
 H          7.469999   -7.585849   -1.278232
 H          6.161584   -8.553025   -2.011521
 H          6.387321   -6.856032   -2.506644
 S         15.240760   -1.649354    0.232250
 C         15.215653    0.966457   -0.033374
 C         16.105627   -0.095823    0.077433
 H         15.548642    1.989210   -0.135883
 C         17.551953   -0.072716    0.079632
 C         18.316221    1.148057   -0.036356
 C         18.317987   -1.231884    0.194418
 C         19.775749    1.131619   -0.030240
 N         17.807789    2.377051   -0.156936
 C         19.723796   -1.246236    0.199979
 C         20.513757   -0.103738    0.091335
 N         20.311711    2.350242   -0.146607
 S         19.072349    3.423077   -0.254220
 C         21.963505   -0.156616    0.099696
 C         22.875153    0.881591    0.009425
 S         22.794586   -1.729842    0.242108
 C         24.213055    0.424694    0.053967
 H         22.569472    1.913857   -0.083567
 C         24.353273   -0.956376    0.177510
 S         25.778992    1.197776   -0.010756
 C         25.702218   -1.406524    0.221188
 C         26.574420   -0.355029    0.129818
 H         26.013925   -2.440086    0.313916
 H         27.655641   -0.394770    0.136258
 H         -7.128069    2.011917   -0.422486
 H         -4.739340    1.971212   -0.433590
 H         17.818232   -2.191630    0.285717
 H         20.203539   -2.215559    0.295773
