       140
S0: Total Energy = -12295.0206947
 C          0.849593    0.825574    0.109374
 C          1.054678   -0.552661    0.052457
 C          2.408954   -0.944667    0.031337
 C          3.270892    0.141806    0.072845
 S          2.363771    1.678933    0.137810
 H          2.761724   -1.964457   -0.011367
 C          4.723440    0.113228    0.068854
 C          5.500368   -1.108692    0.018303
 N          4.986087   -2.337310   -0.031978
 S          6.237649   -3.397754   -0.076523
 N          7.483258   -2.330330   -0.033236
 C          6.962194   -1.104596    0.017558
 C          7.732467    0.121610    0.067306
 C          6.932881    1.248569    0.112565
 C          5.516821    1.244599    0.113316
 F          7.486086    2.475148    0.161707
 F          4.956775    2.468015    0.163041
 C          9.184838    0.158142    0.069680
 C         10.052760   -0.923443    0.026927
 C         11.404962   -0.523900    0.046524
 C         11.602423    0.855256    0.103506
 S         10.083663    1.700208    0.133940
 H          9.705719   -1.945213   -0.015601
 C         12.960968    1.249942    0.118419
 H         13.304467    2.277587    0.148430
 C         -0.510712    1.212595    0.126574
 H         -0.859710    2.238349    0.158004
 C         13.816510    0.165135    0.073386
 C         -1.360680    0.122800    0.083435
 S         12.930730   -1.371998    0.019702
 S         -0.466121   -1.409431    0.027618
 C         15.260667    0.171638    0.068803
 C         16.114452   -0.878043   -0.143935
 S         16.138957    1.682082    0.368721
 C         17.503416   -0.527243   -0.081827
 H         15.768113   -1.880148   -0.366322
 C         17.687883    0.862681    0.179097
 C         18.626558   -1.362150   -0.296893
 C         18.942300    1.478821    0.228368
 C         19.883701   -0.744915   -0.246706
 C         18.500656   -2.806312   -0.561984
 C         20.066490    0.644566    0.014073
 C         19.066550    2.924183    0.492801
 S         21.437514   -1.559807   -0.426362
 C         19.020905   -3.519406   -1.619399
 S         17.675234   -3.884078    0.548226
 C         21.463154    0.997653    0.069463
 C         18.560801    3.634493    1.558841
 S         19.871557    4.004428   -0.628969
 C         22.288120   -0.058110   -0.144136
 C         18.765150   -4.916808   -1.549653
 H         19.559417   -3.048052   -2.434199
 C         18.053579   -5.287064   -0.434087
 H         21.820728    1.999463    0.271810
 C         18.811240    5.033002    1.486132
 H         18.036726    3.160797    2.381767
 C         19.504512    5.405926    0.360088
 H         23.370409   -0.055770   -0.154553
 H         19.088917   -5.629834   -2.299642
 S         17.478465   -6.903359   -0.013431
 H         18.496975    5.744574    2.241533
 S         20.069378    7.023949   -0.067920
 C         18.713951   -7.431058    1.243133
 C         18.813563    7.550456   -1.304623
 H         18.426554   -8.441408    1.546761
 H         19.716701   -7.451268    0.811328
 H         18.689407   -6.772201    2.113746
 H         17.817774    7.569679   -0.856963
 H         19.095087    8.561113   -1.612700
 H         18.824924    6.891672   -2.175559
 C         -2.803976    0.121302    0.082260
 S         -3.690907    1.630622    0.359460
 C         -3.653148   -0.937388   -0.111009
 C         -5.234929    0.798700    0.189641
 C         -5.041953   -0.593940   -0.049965
 H         -3.301842   -1.941323   -0.316777
 C         -6.492724    1.407963    0.234008
 C         -6.162035   -1.440657   -0.247463
 C         -7.612803    0.561224    0.036777
 C         -6.627170    2.855516    0.476265
 C         -7.419806   -0.831441   -0.202815
 C         -6.027676   -2.888197   -0.489808
 C         -9.001656    0.904428    0.099263
 C         -6.116783    3.587006    1.525858
 S         -7.452442    3.911238   -0.654674
 S         -8.963865   -1.663537   -0.371417
 C         -6.538390   -3.619511   -1.539368
 S         -5.202280   -3.944149    0.640826
 C         -9.850787   -0.154524   -0.092577
 H         -9.352996    1.908129    0.306093
 C         -6.379523    4.981897    1.433206
 H         -5.581315    3.130920    2.351363
 C         -7.087043    5.331006    0.308331
 C         -6.275748   -5.014433   -1.446962
 H         -7.074035   -3.163270   -2.364673
 C         -5.568008   -5.363758   -0.322293
 C        -11.294139   -0.157043   -0.089928
 H         -6.063865    5.708039    2.173983
 S         -7.669197    6.937474   -0.139644
 H         -6.591649   -5.740450   -2.187755
 S         -4.985907   -6.970322    0.125402
 C        -12.143353   -1.247637   -0.123536
 S        -12.189877    1.374712   -0.039661
 C         -6.430899    7.452835   -1.398527
 C         -6.224281   -7.485879    1.384131
 C        -13.504002   -0.861599   -0.102746
 H        -11.793632   -2.273295   -0.149929
 C        -13.710029    0.516552   -0.052780
 H         -6.722743    8.456726   -1.718846
 H         -5.430305    7.485603   -0.962519
 H         -6.447682    6.780668   -2.259083
 H         -7.224851   -7.518542    0.948064
 H         -5.932474   -8.489837    1.704272
 H         -6.207520   -6.813871    2.244812
 S        -15.017735   -1.716340   -0.117931
 C        -15.064892    0.907530   -0.026692
 C        -15.925732   -0.179751   -0.056842
 H        -15.418404    1.927220    0.012123
 C        -17.378895   -0.152869   -0.043110
 C        -18.156904    1.068281    0.003763
 C        -18.171107   -1.284792   -0.072675
 C        -19.618841    1.061995    0.017286
 N        -17.643810    2.297956    0.038789
 C        -19.587988   -1.290615   -0.059379
 F        -17.610385   -2.508070   -0.117962
 C        -20.388270   -0.165164   -0.015268
 N        -20.141138    2.287669    0.061934
 S        -18.896719    3.356910    0.084988
 F        -20.138645   -2.519007   -0.093825
 C        -21.842184   -0.202962   -0.002743
 C        -22.710551    0.875556    0.036916
 S        -22.740611   -1.746847   -0.039117
 C        -24.065527    0.473037    0.038098
 H        -22.365680    1.898659    0.063449
 C        -24.260548   -0.905323    0.000053
 S        -25.598047    1.313035    0.076896
 C        -25.628908   -1.301708    0.001518
 C        -26.456500   -0.212943    0.040871
 H        -25.982876   -2.325498   -0.024682
 H        -27.538469   -0.208716    0.051254
       140
T1: Total Energy = -12294.9787647
 C         -0.862855    0.875062   -0.219075
 C         -1.081004   -0.503251   -0.015152
 C         -2.416780   -0.884591    0.041153
 C         -3.298325    0.209417   -0.120852
 S         -2.374289    1.734479   -0.346530
 H         -2.783755   -1.889007    0.190175
 C         -4.714874    0.170717   -0.114235
 C         -5.483685   -1.049256    0.068541
 N         -4.957897   -2.256561    0.247171
 S         -6.215962   -3.335702    0.410252
 N         -7.473419   -2.255427    0.252096
 C         -6.947002   -1.048373    0.071344
 C         -7.715183    0.171744   -0.108825
 C         -6.900667    1.331347   -0.283950
 C         -5.529852    1.331159   -0.286419
 F         -7.498332    2.529934   -0.462178
 F         -4.932060    2.529335   -0.466707
 C         -9.133337    0.211175   -0.110591
 C        -10.014115   -0.880518    0.056653
 C        -11.351312   -0.497519    0.003566
 C        -11.567981    0.878776   -0.203020
 S        -10.056620    1.736165   -0.336838
 H         -9.648160   -1.885118    0.206955
 C        -12.917254    1.251204   -0.252029
 H        -13.273389    2.264315   -0.399626
 C          0.484419    1.245786   -0.271421
 H          0.841298    2.258738   -0.418411
 C        -13.772283    0.163439   -0.082877
 C          1.340990    0.155434   -0.107905
 S        -12.870692   -1.353162    0.136988
 S          0.437724   -1.361347    0.111318
 C        -15.205370    0.165358   -0.071853
 C        -16.055525   -0.896511    0.136622
 S        -16.099779    1.672843   -0.347843
 C        -17.442655   -0.556430    0.084483
 H        -15.700379   -1.899127    0.341752
 C        -17.639922    0.835967   -0.163154
 C        -18.559568   -1.404492    0.294927
 C        -18.898304    1.441442   -0.201403
 C        -19.820731   -0.796283    0.256197
 C        -18.420667   -2.849582    0.543673
 C        -20.015259    0.594842    0.009761
 C        -19.036506    2.888125   -0.451346
 S        -21.367837   -1.624780    0.432313
 C        -18.941463   -3.579695    1.589490
 S        -17.577197   -3.906844   -0.572991
 C        -21.413421    0.937615   -0.036876
 C        -18.544898    3.612093   -1.514781
 S        -19.841745    3.951037    0.686532
 C        -22.229814   -0.127319    0.168886
 C        -18.671681   -4.973431    1.505624
 H        -19.489087   -3.122964    2.406501
 C        -17.949169   -5.324178    0.390681
 H        -21.779579    1.938527   -0.227735
 C        -18.806291    5.007740   -1.427153
 H        -18.023440    3.150343   -2.346133
 C        -19.493864    5.364455   -0.292402
 H        -23.312059   -0.132861    0.183040
 H        -18.993425   -5.698004    2.245295
 S        -17.356275   -6.930085   -0.044845
 H        -18.503728    5.728845   -2.178246
 S        -20.068961    6.973675    0.154820
 C        -18.580002   -7.454830   -1.314124
 C        -18.809098    7.498580    1.388082
 H        -18.281550   -8.459110   -1.627003
 H        -19.584885   -7.489000   -0.888220
 H        -18.556498   -6.786354   -2.177391
 H        -17.816557    7.530178    0.933992
 H        -19.096797    8.503963    1.707463
 H        -18.809367    6.831635    2.252849
 C          2.770806    0.156643   -0.102237
 S          3.667725    1.665760   -0.360808
 C          3.622708   -0.910843    0.088599
 C          5.206550    0.823151   -0.195696
 C          5.006420   -0.572749    0.034111
 H          3.266823   -1.915711    0.281092
 C          6.465134    1.426325   -0.232207
 C          6.124858   -1.427924    0.226344
 C          7.582449    0.571931   -0.038642
 C          6.607712    2.875014   -0.462821
 C          7.383411   -0.823068    0.189618
 C          5.983418   -2.876223    0.454723
 C          8.969761    0.910533   -0.095185
 C          6.108585    3.616001   -1.511118
 S          7.428861    3.918713    0.682104
 S          8.924451   -1.662121    0.352431
 C          6.499605   -3.620994    1.492427
 S          5.141933   -3.916370   -0.679126
 C          9.816659   -0.154132    0.089239
 H          9.324811    1.914956   -0.291689
 C          6.376594    5.009040   -1.406264
 H          5.577620    3.168217   -2.344066
 C          7.076933    5.346850   -0.273486
 C          6.228378   -5.013196    1.388241
 H          7.044099   -3.176205    2.318157
 C          5.508937   -5.347295    0.266272
 C         11.258212   -0.159806    0.088647
 H          6.069757    5.741904   -2.144091
 S          7.662778    6.947390    0.190688
 H          6.546569   -5.748356    2.118919
 S          4.914638   -6.946104   -0.193032
 C         12.105103   -1.252903    0.137553
 S         12.158741    1.368794    0.018888
 C          6.416885    7.459233    1.443496
 C          6.140681   -7.454970   -1.466508
 C         13.465816   -0.871221    0.113764
 H         11.752602   -2.277167    0.177822
 C         13.675795    0.506269    0.046539
 H          6.710889    8.459419    1.773251
 H          5.419962    7.499851    0.999847
 H          6.423868    6.780869    2.299300
 H          7.144416   -7.497033   -1.038621
 H          5.841184   -8.454226   -1.794091
 H          6.120459   -6.774490   -2.320420
 S         14.977252   -1.729909    0.142759
 C         15.031423    0.892998    0.018244
 C         15.889127   -0.196589    0.063882
 H         15.388150    1.911013   -0.032773
 C         17.342188   -0.173583    0.052768
 C         18.123471    1.044841   -0.007392
 C         18.131158   -1.307475    0.097649
 C         19.585322    1.034260   -0.017482
 N         17.613896    2.275367   -0.059100
 C         19.547852   -1.317479    0.087619
 F         17.566657   -2.528270    0.156450
 C         20.351317   -0.194620    0.031827
 N         20.111156    2.257778   -0.076395
 S         18.869947    3.330165   -0.115821
 F         20.095054   -2.546798    0.138058
 C         21.804899   -0.236627    0.023087
 C         22.676405    0.839155   -0.026000
 S         22.698993   -1.782510    0.077744
 C         24.030106    0.432979   -0.019997
 H         22.334442    1.862868   -0.064128
 C         24.221191   -0.945559    0.032900
 S         25.565029    1.268303   -0.064238
 C         25.588392   -1.345683    0.038547
 C         26.419013   -0.259581   -0.010416
 H         25.939494   -2.370093    0.076200
 H         27.501013   -0.258473   -0.018534
       140
S1: Total Energy = -12294.9614320
 C         -0.847922    0.876338   -0.251401
 C         -1.063483   -0.502660   -0.063791
 C         -2.406349   -0.885938   -0.010214
 C         -3.277404    0.202565   -0.156944
 S         -2.364458    1.729706   -0.366345
 H         -2.773344   -1.891974    0.127921
 C         -4.713820    0.168732   -0.147388
 C         -5.475251   -1.049104    0.026838
 N         -4.943480   -2.263251    0.193330
 S         -6.204848   -3.335979    0.350992
 N         -7.466126   -2.262631    0.208829
 C         -6.935858   -1.048233    0.035607
 C         -7.699814    0.169381   -0.130397
 C         -6.901790    1.315063   -0.296748
 C         -5.513594    1.314739   -0.304567
 F         -7.487268    2.523108   -0.463469
 F         -4.928826    2.521665   -0.477581
 C         -9.137028    0.202787   -0.124583
 C        -10.007101   -0.880754    0.039751
 C        -11.353030   -0.495194   -0.005838
 C        -11.567547    0.876933   -0.204314
 S        -10.054116    1.727856   -0.339103
 H         -9.642222   -1.886857    0.183541
 C        -12.920586    1.252572   -0.245634
 H        -13.275159    2.267485   -0.385621
 C          0.497248    1.249705   -0.300207
 H          0.852492    2.265030   -0.435788
 C        -13.774579    0.167607   -0.078080
 C          1.358490    0.157351   -0.149580
 S        -12.871263   -1.349510    0.130024
 S          0.451549   -1.362381    0.051712
 C        -15.208127    0.169245   -0.060214
 C        -16.059820   -0.888538    0.165824
 S        -16.102508    1.673508   -0.352404
 C        -17.445665   -0.548037    0.115830
 H        -15.704008   -1.887988    0.384583
 C        -17.643512    0.842054   -0.148552
 C        -18.564032   -1.391712    0.343523
 C        -18.900483    1.448494   -0.187274
 C        -19.824552   -0.781566    0.304037
 C        -18.426884   -2.833061    0.609908
 C        -20.018669    0.606223    0.040709
 C        -19.038322    2.891888   -0.455063
 S        -21.372852   -1.605241    0.497095
 C        -18.956089   -3.551204    1.660279
 S        -17.576521   -3.904706   -0.488453
 C        -21.415856    0.950489   -0.004696
 C        -18.548656    3.602139   -1.528665
 S        -19.839713    3.969988    0.671374
 C        -22.233825   -0.110361    0.218294
 C        -18.688084   -4.945965    1.594057
 H        -19.507961   -3.084535    2.468744
 C        -17.958260   -5.310407    0.488158
 H        -21.781227    1.949420   -0.207265
 C        -18.808503    4.998981   -1.457988
 H        -18.029539    3.129438   -2.355296
 C        -19.492896    5.370632   -0.326093
 H        -23.315993   -0.113711    0.237213
 H        -19.015963   -5.661621    2.339707
 S        -17.364815   -6.922127    0.075770
 H        -18.506992    5.710270   -2.218817
 S        -20.064101    6.986024    0.103475
 C        -18.576443   -7.457322   -1.200781
 C        -18.795410    7.526455    1.320937
 H        -18.277257   -8.465557   -1.499968
 H        -19.585886   -7.484567   -0.785247
 H        -18.542175   -6.798047   -2.070744
 H        -17.806175    7.552249    0.859334
 H        -19.080797    8.535771    1.629843
 H        -18.789336    6.870260    2.193867
 C          2.779477    0.161620   -0.142705
 S          3.680838    1.670632   -0.374305
 C          3.637640   -0.915963    0.034363
 C          5.218609    0.821648   -0.218305
 C          5.010955   -0.582570   -0.012921
 H          3.276449   -1.920968    0.214670
 C          6.473053    1.420771   -0.235175
 C          6.132204   -1.449058    0.169486
 C          7.593067    0.555039   -0.051097
 C          6.624306    2.871435   -0.438172
 C          7.387685   -0.847262    0.151870
 C          5.983566   -2.898843    0.369110
 C          8.969437    0.890644   -0.098063
 C          6.118943    3.635366   -1.467403
 S          7.464570    3.887991    0.717666
 S          8.927734   -1.693465    0.302010
 C          6.518114   -3.669262    1.379538
 S          5.110533   -3.910386   -0.767990
 C          9.823884   -0.183787    0.072777
 H          9.327561    1.897458   -0.275306
 C          6.397828    5.023912   -1.339256
 H          5.577891    3.206987   -2.304003
 C          7.111944    5.335550   -0.207435
 C          6.237183   -5.056840    1.251007
 H          7.079975   -3.245579    2.204683
 C          5.491942   -5.362706    0.137534
 C         11.253554   -0.180124    0.077160
 H          6.088809    5.772464   -2.060145
 S          7.711633    6.922942    0.283641
 H          6.566288   -5.809239    1.958864
 S          4.879109   -6.948112   -0.343208
 C         12.110428   -1.271339    0.185831
 S         12.152488    1.347568   -0.068703
 C          6.467775    7.424801    1.542618
 C          6.070542   -7.431487   -1.658867
 C         13.461926   -0.888720    0.148787
 H         11.759958   -2.292634    0.281230
 C         13.669646    0.490651    0.012772
 H          6.770029    8.416936    1.888710
 H          5.472190    7.481357    1.097830
 H          6.467587    6.732616    2.387277
 H          7.084537   -7.487619   -1.257665
 H          5.758105   -8.421670   -2.001441
 H          6.031551   -6.731484   -2.496161
 S         14.977131   -1.740248    0.229480
 C         15.018843    0.878506   -0.026626
 C         15.883256   -0.207924    0.078957
 H         15.375152    1.893018   -0.126154
 C         17.330697   -0.176811    0.075482
 C         18.105623    1.042618   -0.036823
 C         18.126459   -1.307892    0.178905
 C         19.567446    1.038064   -0.036142
 N         17.590227    2.266166   -0.149561
 C         19.537969   -1.311105    0.179068
 F         17.562398   -2.525333    0.290694
 C         20.337722   -0.183954    0.076102
 N         20.089090    2.259835   -0.148553
 S         18.843145    3.325285   -0.246899
 F         20.094709   -2.532595    0.290554
 C         21.788295   -0.219803    0.080013
 C         22.656390    0.858356   -0.014487
 S         22.690955   -1.756782    0.215963
 C         24.010393    0.460612    0.021377
 H         22.308706    1.876854   -0.104479
 C         24.208495   -0.913819    0.142386
 S         25.541448    1.301627   -0.051430
 C         25.577015   -1.304897    0.177676
 C         26.402292   -0.217120    0.082605
 H         25.933735   -2.324084    0.267412
 H         27.484326   -0.210719    0.082652
