       120
S0: Total Energy = -7062.00219462
 C        -11.106409   -1.460354   -0.060862
 C        -10.987104   -2.845665   -0.109051
 S         -9.529576   -0.693089   -0.097218
 C         -9.633834   -3.264627   -0.155428
 C         -8.697645   -2.245077   -0.149227
 H         -9.347689   -4.306662   -0.184356
 C         -7.249987   -2.355503   -0.184859
 C         -6.395051   -1.269073   -0.162655
 C         -6.543583   -3.618618   -0.247921
 C         -4.981726   -1.343201   -0.195151
 F         -6.887956   -0.016752   -0.106699
 C         -5.083418   -3.695223   -0.282434
 N         -7.126425   -4.816968   -0.280973
 C         -4.246896   -2.512915   -0.255218
 F         -4.358400   -0.149605   -0.161547
 N         -4.631212   -4.947843   -0.339630
 C         -2.795646   -2.554264   -0.287563
 C         -1.972731   -3.664850   -0.360553
 S         -1.804116   -1.099566   -0.226564
 C         -0.582746   -3.389795   -0.378814
 H         -2.367849   -4.669897   -0.407858
 C         -0.316120   -2.024697   -0.322344
 S         -5.935486   -5.944623   -0.349542
 C        -12.123007   -3.836625   -0.096434
 H        -12.849112   -3.619213    0.694287
 H        -12.669429   -3.845570   -1.047880
 H        -11.739164   -4.847594    0.068657
 C          0.440148   -4.493418   -0.467115
 H          1.003840   -4.605798    0.467444
 H         -0.053268   -5.448841   -0.667611
 H          1.167305   -4.317031   -1.267370
 C        -12.275952   -0.610837    0.018867
 S        -13.887819   -1.177148   -0.455864
 C        -12.324442    0.710125    0.404675
 C        -14.583426    0.388051   -0.116845
 C        -13.621033    1.303033    0.335963
 H        -11.442194    1.238395    0.747255
 C        -15.936626    0.769024   -0.243499
 C        -14.010195    2.652915    0.673872
 C        -16.343703    2.073163    0.074782
 S        -17.278815   -0.217967   -0.781665
 C        -15.377169    3.038823    0.540414
 C        -13.082297    3.614548    1.133390
 C        -17.756597    2.247037   -0.127146
 C        -18.379286    1.123560   -0.576458
 C        -15.735159    4.365267    0.873339
 C        -13.448720    4.910343    1.456605
 H        -12.038749    3.330611    1.237928
 H        -18.287508    3.173836    0.056567
 H        -19.428017    0.988726   -0.804886
 H        -16.773501    4.669462    0.773821
 C        -14.814216    5.296768    1.322125
 C        -12.414568    5.896449    1.943641
 C        -15.253060    6.700584    1.662556
 H        -12.351448    6.774244    1.287664
 H        -12.653716    6.271249    2.947268
 H        -11.422191    5.438021    1.985444
 H        -16.328101    6.826642    1.503746
 H        -15.036841    6.949844    2.709425
 H        -14.733213    7.447232    1.048444
 C          0.936511   -1.301417   -0.338128
 S          2.488694   -2.090657   -0.001662
 C          1.121137    0.046058   -0.561784
 C          3.343109   -0.577198   -0.173835
 C          2.474394    0.485025   -0.472807
 H          0.294182    0.704787   -0.800209
 C          4.730090   -0.360425   -0.057231
 C          3.000220    1.819038   -0.655533
 S          5.961008   -1.544360    0.308220
 C          5.271218    0.924551   -0.225527
 C          4.403461    2.039923   -0.529314
 C          2.170845    2.923059   -0.954117
 C          7.230039   -0.307504    0.242017
 C          6.685869    0.924789   -0.048772
 C          4.895687    3.351824   -0.709520
 H          1.100167    2.765944   -1.051150
 C          2.667874    4.204211   -1.127808
 C          8.628143   -0.626397    0.434189
 H          7.296655    1.817393   -0.118808
 C          4.070151    4.424835   -1.002123
 H          5.963297    3.530534   -0.616520
 C          1.734877    5.347677   -1.445339
 C          9.240214   -1.739348    1.002877
 S          9.823841    0.539549   -0.104074
 C          4.650665    5.806354   -1.184347
 H          0.697578    5.005293   -1.504077
 H          1.785957    6.135141   -0.682412
 H          1.987005    5.821482   -2.402814
 C         10.653138   -1.626884    1.011529
 C          8.539648   -2.944961    1.575482
 C         11.157817   -0.461373    0.462297
 H          4.434059    6.207583   -2.182755
 H          4.232420    6.519236   -0.462075
 H          5.736945    5.797618   -1.055500
 H         11.295393   -2.391856    1.424814
 H          7.746619   -2.664865    2.277494
 H          8.080242   -3.562071    0.793222
 H          9.254191   -3.576326    2.111547
 C         12.547892   -0.058434    0.332353
 C         12.952416    1.136332   -0.231013
 C         13.662349   -0.867713    0.780746
 C         14.298369    1.558462   -0.371207
 F         12.041616    2.009376   -0.702362
 C         15.050835   -0.431430    0.635348
 N         13.551784   -2.063943    1.358345
 C         15.404157    0.837627    0.034245
 F         14.445262    2.764547   -0.951772
 N         15.924930   -1.319379    1.110535
 S         15.069470   -2.594253    1.690187
 C         16.776553    1.300055   -0.123937
 C         17.942554    0.652307    0.239942
 S         17.173766    2.861480   -0.851748
 C         19.138237    1.374218   -0.049144
 H         17.936954   -0.323342    0.705863
 C         18.866293    2.582137   -0.638729
 C         20.519627    0.860827    0.260374
 H         19.575288    3.332860   -0.964528
 H         20.642675    0.673200    1.334000
 H         20.717069   -0.085896   -0.257074
 H         21.287310    1.577623   -0.045695
       120
T1: Total Energy = -7061.96256974
 C        -11.086411   -1.446151   -0.060564
 C        -10.946027   -2.847191   -0.088637
 S         -9.506567   -0.663431   -0.031007
 C         -9.607296   -3.252909   -0.083667
 C         -8.656464   -2.216834   -0.053549
 H         -9.304015   -4.289840   -0.101058
 C         -7.240620   -2.332815   -0.042831
 C         -6.367856   -1.205741   -0.015671
 C         -6.539902   -3.604211   -0.058715
 C         -4.998134   -1.277324   -0.006255
 F         -6.902402    0.036500    0.001859
 C         -5.077339   -3.681923   -0.047595
 N         -7.130788   -4.795480   -0.083760
 C         -4.246742   -2.490338   -0.021208
 F         -4.336667   -0.098058    0.019333
 N         -4.615564   -4.928438   -0.064394
 C         -2.829576   -2.522277   -0.011393
 C         -1.990598   -3.655666   -0.022332
 S         -1.821463   -1.066319    0.017690
 C         -0.620218   -3.394798   -0.008466
 H         -2.402578   -4.654324   -0.040642
 C         -0.330364   -2.012453    0.013645
 S         -5.930951   -5.951332   -0.092821
 C        -12.074915   -3.843541   -0.119342
 H        -12.728676   -3.748521    0.755720
 H        -12.702033   -3.724143   -1.010872
 H        -11.676532   -4.861767   -0.127776
 C          0.398380   -4.503479   -0.017868
 H          1.037292   -4.479148    0.872952
 H         -0.103878   -5.474392   -0.040337
 H          1.055570   -4.447415   -0.893772
 C        -12.253940   -0.620182   -0.052092
 S        -13.904322   -1.279218   -0.109315
 C        -12.296439    0.766072   -0.002859
 C        -14.591579    0.325286   -0.065677
 C        -13.601195    1.323689   -0.009017
 H        -11.393198    1.363216    0.038524
 C        -15.957260    0.667803   -0.081465
 C        -13.983375    2.718459    0.035323
 C        -16.357847    2.013926   -0.040507
 S        -17.330624   -0.417237   -0.150536
 C        -15.367125    3.062568    0.019575
 C        -13.032200    3.760227    0.094572
 C        -17.788112    2.136805   -0.066670
 C        -18.431432    0.937801   -0.124455
 C        -15.718831    4.430428    0.064129
 C        -13.392067    5.097633    0.137882
 H        -11.975299    3.508887    0.107121
 H        -18.317954    3.081817   -0.043813
 H        -19.497326    0.755399   -0.154003
 H        -16.770448    4.703151    0.053072
 C        -14.774493    5.442184    0.122224
 C        -12.331963    6.170309    0.201131
 C        -15.207430    6.887592    0.168327
 H        -12.396547    6.853815   -0.655268
 H        -12.433957    6.786927    1.103429
 H        -11.329131    5.733381    0.205883
 H        -16.297852    6.973212    0.148963
 H        -14.847146    7.388843    1.075867
 H        -14.810619    7.455846   -0.682745
 C          0.913162   -1.319195    0.031458
 S          2.487286   -2.147818    0.042184
 C          1.101421    0.060874    0.044168
 C          3.337215   -0.620944    0.063643
 C          2.451507    0.478428    0.062057
 H          0.263998    0.748351    0.040047
 C          4.724854   -0.421807    0.080331
 C          2.976590    1.828295    0.078445
 S          5.971494   -1.646924    0.089453
 C          5.266276    0.878900    0.097629
 C          4.387269    2.028200    0.096640
 C          2.137226    2.962536    0.077314
 C          7.243588   -0.411512    0.118178
 C          6.685547    0.853595    0.119540
 C          4.878143    3.351641    0.112599
 H          1.060138    2.821717    0.063403
 C          2.632576    4.257288    0.093228
 C          8.646864   -0.745370    0.123127
 H          7.296803    1.748125    0.143448
 C          4.042260    4.457307    0.111411
 H          5.951974    3.515267    0.125923
 C          1.688025    5.434452    0.090950
 C          9.293896   -1.975843    0.232506
 S          9.812122    0.560986   -0.024224
 C          4.621556    5.850935    0.129075
 H          0.645534    5.103614    0.076830
 H          1.828389    6.066466    0.977206
 H          1.848222    6.078897   -0.782924
 C         10.703095   -1.844095    0.204892
 C          8.631012   -3.321571    0.373538
 C         11.175076   -0.548977    0.074237
 H          4.309210    6.429148   -0.749947
 H          4.289629    6.414895    1.010198
 H          5.714993    5.823544    0.140998
 H         11.368917   -2.691968    0.283294
 H          7.961993   -3.361618    1.241012
 H          8.035956   -3.580733   -0.510643
 H          9.386935   -4.101558    0.500906
 C         12.554550   -0.098687    0.017392
 C         12.925442    1.225225   -0.123554
 C         13.692891   -0.990207    0.102929
 C         14.260267    1.696731   -0.182266
 F         11.988303    2.187587   -0.217785
 C         15.070271   -0.502394    0.042554
 N         13.616193   -2.313472    0.242895
 C         15.387976    0.902578   -0.107107
 F         14.373296    3.031085   -0.322797
 N         15.970631   -1.481141    0.139906
 S         15.150960   -2.894291    0.294223
 C         16.748207    1.418748   -0.170864
 C         17.933983    0.710252   -0.104674
 S         17.101762    3.141280   -0.354499
 C         19.110258    1.511112   -0.197287
 H         17.956075   -0.364807    0.008285
 C         18.803600    2.840853   -0.335004
 C         20.507753    0.952393   -0.148519
 H         19.492147    3.671415   -0.427174
 H         20.690242    0.419857    0.792786
 H         20.678346    0.236931   -0.962141
 H         21.255666    1.745909   -0.236325
       120
S1: Total Energy = -7061.94647326
 C        -11.084682   -1.444392   -0.016445
 C        -10.951770   -2.838864   -0.021804
 S         -9.502798   -0.671641    0.001137
 C         -9.605390   -3.251696   -0.009639
 C         -8.662118   -2.225189    0.003985
 H         -9.306883   -4.290359   -0.010249
 C         -7.227652   -2.339043    0.015992
 C         -6.369084   -1.226998    0.024204
 C         -6.534065   -3.608329    0.019193
 C         -4.982331   -1.303507    0.032202
 F         -6.887735    0.023462    0.023553
 C         -5.075406   -3.688537    0.028473
 N         -7.133291   -4.803780    0.014273
 C         -4.249988   -2.502332    0.033836
 F         -4.328993   -0.118712    0.037946
 N         -4.609866   -4.942014    0.030507
 C         -2.810749   -2.543551    0.038671
 C         -1.985548   -3.671478    0.042676
 S         -1.811019   -1.091708    0.037585
 C         -0.605861   -3.410934    0.044211
 H         -2.399574   -4.669506    0.043860
 C         -0.318029   -2.034458    0.041176
 S         -5.931690   -5.954762    0.021187
 C        -12.081215   -3.835653   -0.036963
 H        -12.739340   -3.724263    0.833076
 H        -12.705275   -3.735636   -0.933271
 H        -11.683012   -4.854060   -0.023228
 C          0.408251   -4.523222    0.048273
 H          1.056535   -4.483188    0.932002
 H         -0.097361   -5.492575    0.051272
 H          1.057176   -4.489026   -0.835244
 C        -12.251158   -0.608406   -0.022482
 S        -13.901701   -1.265316   -0.081894
 C        -12.290930    0.776163    0.010369
 C        -14.588053    0.340135   -0.061368
 C        -13.595180    1.336805   -0.010611
 H        -11.386668    1.371927    0.050730
 C        -15.952170    0.685164   -0.089071
 C        -13.975369    2.732304    0.014502
 C        -16.351181    2.032939   -0.066503
 S        -17.327829   -0.398226   -0.153604
 C        -15.358621    3.079483   -0.013233
 C        -13.022423    3.772985    0.066060
 C        -17.780843    2.157751   -0.102720
 C        -18.426471    0.959379   -0.150206
 C        -15.707026    4.448773    0.012792
 C        -13.379230    5.111843    0.090857
 H        -11.966224    3.519265    0.087245
 H        -18.309033    3.103997   -0.094367
 H        -19.492544    0.778762   -0.184022
 H        -16.757959    4.723839   -0.007258
 C        -14.760682    5.459207    0.063627
 C        -12.316895    6.182760    0.146230
 C        -15.190722    6.905996    0.089597
 H        -12.375287    6.855782   -0.718939
 H        -12.421838    6.810934    1.040236
 H        -11.315172    5.743489    0.161557
 H        -16.280861    6.993659    0.063127
 H        -14.834408    7.417734    0.992885
 H        -14.788048    7.463034   -0.766169
 C          0.924028   -1.338973    0.039156
 S          2.494866   -2.168658    0.041493
 C          1.111313    0.045297    0.033760
 C          3.347380   -0.640220    0.034319
 C          2.454759    0.462681    0.030802
 H          0.271704    0.729729    0.031309
 C          4.725789   -0.441368    0.030889
 C          2.979876    1.814263    0.024102
 S          5.974078   -1.667894    0.033459
 C          5.271633    0.867663    0.023553
 C          4.389442    2.016642    0.020375
 C          2.138662    2.945142    0.020763
 C          7.245601   -0.430043    0.023958
 C          6.680407    0.842718    0.019837
 C          4.878441    3.338991    0.013414
 H          1.061946    2.802538    0.023617
 C          2.632001    4.242627    0.013925
 C          8.639093   -0.750966    0.019951
 H          7.293006    1.736453    0.014091
 C          4.039811    4.444822    0.010109
 H          5.951829    3.505200    0.010470
 C          1.684686    5.416998    0.010565
 C          9.296490   -1.990065    0.026319
 S          9.803954    0.569525    0.003543
 C          4.617768    5.838637    0.002480
 H          0.642978    5.083934    0.014142
 H          1.836064    6.059149    0.887558
 H          1.832542    6.051247   -0.872756
 C         10.698023   -1.850934    0.017909
 C          8.636351   -3.342963    0.040568
 C         11.168205   -0.542175    0.005030
 H          4.292769    6.404424   -0.879910
 H          4.295624    6.412937    0.880396
 H          5.711181    5.812983    0.000829
 H         11.369853   -2.697491    0.021012
 H          8.006454   -3.482213    0.927296
 H          8.001464   -3.498324   -0.839935
 H          9.394060   -4.131203    0.045544
 C         12.542604   -0.090828   -0.006719
 C         12.911756    1.246726   -0.019314
 C         13.680705   -0.987167   -0.007224
 C         14.240138    1.720967   -0.031987
 F         11.968366    2.208365   -0.020474
 C         15.057232   -0.493175   -0.020532
 N         13.604421   -2.317479    0.003764
 C         15.371404    0.919985   -0.033684
 F         14.356951    3.063247   -0.043151
 N         15.960355   -1.474961   -0.018954
 S         15.142800   -2.900506   -0.002137
 C         16.728020    1.440936   -0.047338
 C         17.916281    0.730152   -0.050591
 S         17.081267    3.174589   -0.062920
 C         19.090713    1.536768   -0.065226
 H         17.938369   -0.350729   -0.042595
 C         18.782806    2.874203   -0.073081
 C         20.489007    0.977981   -0.071190
 H         19.471193    3.709954   -0.084421
 H         20.672475    0.357357    0.814284
 H         20.659831    0.344510   -0.950072
 H         21.235956    1.777137   -0.082365
