       120
S0: Total Energy = -6696.94598068
 C         13.929191    7.273029    4.048012
 C         14.834143    7.334985    3.019453
 C         14.600556    6.309493    2.055037
 C         13.534047    5.481005    2.346636
 S         12.790100    5.983445    3.865926
 H         15.202152    6.180928    1.164543
 C         13.050745    4.353298    1.563756
 C         13.647089    3.929997    0.329030
 N         14.712651    4.448063   -0.318816
 N         13.950962    2.692707   -1.522436
 C         13.166385    2.821684   -0.431491
 C         12.040268    2.026646   -0.032400
 C         11.489651    2.466214    1.161765
 C         11.966728    3.564033    1.915075
 F         10.420153    1.833553    1.687921
 F         11.280534    3.817920    3.048987
 C         11.542093    0.896638   -0.797341
 C         12.032678    0.411527   -1.996085
 C         11.339299   -0.709457   -2.520789
 C         10.286584   -1.101773   -1.702460
 S         10.172921   -0.079446   -0.282497
 H         12.875277    0.868649   -2.498357
 C          9.345417   -2.185404   -1.894327
 C          9.520667   -3.385778   -2.557328
 C          8.380276   -4.223668   -2.540641
 C          7.298609   -3.689473   -1.864759
 S          7.715663   -2.096932   -1.243661
 H         10.458496   -3.675563   -3.014451
 H          8.357768   -5.195871   -3.011409
 C         15.939786    8.351369    2.908858
 H         16.923597    7.867264    2.877663
 H         15.843714    8.945573    1.991861
 H         15.931634    9.040932    3.758173
 C         11.713907   -1.346982   -3.832401
 H         12.365322   -2.219302   -3.689853
 H         10.830221   -1.686507   -4.382369
 H         12.257514   -0.635703   -4.461848
 H         13.867160    7.921166    4.913087
 C          5.967925   -4.243213   -1.637643
 C          4.924227   -3.476938   -1.083090
 C          5.622701   -5.574725   -1.945588
 C          3.670598   -4.015899   -0.866734
 H          5.073932   -2.436100   -0.817552
 C          4.368887   -6.110323   -1.730787
 C          3.325033   -5.342830   -1.173561
 H          4.215012   -7.146614   -2.005984
 N         14.832803    3.672591   -1.386154
 C         15.840074    3.934087   -2.404692
 H         16.096190    2.988159   -2.880829
 H         15.445099    4.630570   -3.149778
 H         16.712837    4.368425   -1.917984
 C          2.002702   -5.917844   -0.947829
 C          1.607449   -7.220661   -1.193336
 S          0.648795   -5.003248   -0.298036
 C          0.253891   -7.485041   -0.887078
 H          2.269951   -7.977721   -1.596657
 C         -0.426675   -6.386551   -0.392636
 H         -0.215163   -8.445335   -1.060634
 F          6.556352   -6.398996   -2.479384
 F          2.729971   -3.200288   -0.330487
 C         -1.813007   -6.284585    0.014442
 C         -2.641531   -7.269901    0.539188
 S         -2.658427   -4.755038   -0.126015
 C         -3.939896   -6.776880    0.826638
 C         -2.240505   -8.694298    0.818035
 C         -4.135874   -5.437414    0.540876
 H         -4.721161   -7.393119    1.252169
 H         -2.881884   -9.127794    1.591600
 H         -2.335222   -9.326577   -0.074664
 H         -1.201530   -8.761487    1.156553
 C         -5.348630   -4.662916    0.733745
 C         -6.566628   -5.210876    1.259901
 C         -5.471383   -3.314253    0.432044
 N         -6.823103   -6.473149    1.663954
 C         -7.752712   -4.439176    1.446760
 C         -6.646026   -2.550534    0.616122
 F         -4.422377   -2.636362   -0.078202
 N         -8.085321   -6.419529    2.063594
 N         -8.701275   -5.250856    1.960281
 C         -7.839095   -3.043033    1.124866
 F         -6.547179   -1.253461    0.257787
 C         -8.787946   -7.609912    2.521562
 C         -9.039526   -2.247790    1.311068
 H         -9.544473   -7.303237    3.243288
 H         -9.264273   -8.111079    1.674120
 H         -8.061511   -8.276242    2.985569
 C        -10.260356   -2.671740    1.804985
 S         -9.123892   -0.534650    0.922315
 C        -11.263666   -1.671191    1.870085
 H        -10.433211   -3.697396    2.103922
 C        -10.803242   -0.440437    1.416839
 C        -12.661463   -1.960167    2.349501
 C        -11.519476    0.814048    1.316414
 H        -12.786902   -1.712580    3.411818
 H        -13.406007   -1.384092    1.790584
 H        -12.893373   -3.023538    2.234868
 C        -12.566638    1.285026    2.086383
 S        -11.109597    1.995091    0.081400
 C        -13.027765    2.568289    1.705974
 H        -12.968649    0.739838    2.931237
 C        -12.339089    3.119777    0.642368
 H        -13.827001    3.084426    2.219086
 C        -12.502414    4.417025   -0.006392
 C        -11.520255    4.955501   -0.858871
 C        -13.648404    5.218940    0.159092
 C        -11.697289    6.179436   -1.476688
 H        -10.590022    4.428549   -1.041495
 C        -13.820556    6.442838   -0.456492
 F        -14.654285    4.784038    0.955803
 C        -12.838912    6.981010   -1.313453
 F        -10.694420    6.618519   -2.276757
 H        -14.742769    6.975847   -0.259748
 C        -13.031284    8.277706   -1.962788
 C        -14.133966    9.104491   -1.862534
 S        -11.832533    9.019049   -3.017768
 C        -14.024766   10.306425   -2.612367
 H        -15.007569    8.862983   -1.268166
 C        -12.837542   10.400715   -3.287445
 H        -14.798222   11.065779   -2.646205
 H        -12.491680   11.199929   -3.929642
       120
T1: Total Energy = -6696.89731283
 C         12.123391    8.856339    0.542402
 C         13.373655    8.460926    0.140735
 C         13.444089    7.046284   -0.032479
 C         12.264867    6.377165    0.233573
 S         11.021809    7.533411    0.715197
 H         14.341170    6.528179   -0.345947
 C         12.022794    4.944645    0.148856
 C         13.023842    3.991543   -0.237056
 N         14.313822    4.206902   -0.573287
 N         13.922856    1.983893   -0.697727
 C         12.777422    2.587677   -0.316027
 C         11.503684    1.997623   -0.017421
 C         10.562453    2.948019    0.348380
 C         10.807530    4.338517    0.427193
 F          9.306057    2.570145    0.663721
 F          9.747657    5.083264    0.805362
 C         11.240035    0.571520   -0.094184
 C         12.123277   -0.427941   -0.461748
 C         11.585672   -1.740106   -0.452295
 C         10.250558   -1.754631   -0.062966
 S          9.678398   -0.136188    0.296190
 H         13.144722   -0.213778   -0.748040
 C          9.354758   -2.883850    0.060166
 C          9.649116   -4.206350    0.342185
 C          8.515574   -5.049621    0.392128
 C          7.316881   -4.397106    0.160484
 S          7.621652   -2.693769   -0.160228
 H         10.652865   -4.555615    0.548939
 H          8.575360   -6.104363    0.619642
 C         14.534595    9.391445   -0.091825
 H         15.379698    9.144555    0.562439
 H         14.896772    9.325299   -1.125093
 H         14.254279   10.431450    0.099802
 C         12.393058   -2.944629   -0.857650
 H         12.811081   -3.467042    0.012940
 H         11.786502   -3.668451   -1.411728
 H         13.233904   -2.645884   -1.491099
 H         11.783762    9.863521    0.748594
 C          5.956506   -4.914196    0.155503
 C          4.831791   -4.063063    0.156760
 C          5.654818   -6.292982    0.138443
 C          3.547922   -4.567298    0.139131
 H          4.947809   -2.985122    0.185767
 C          4.371961   -6.796122    0.123092
 C          3.243462   -5.943146    0.122383
 H          4.257938   -7.873050    0.105780
 N         14.775289    2.990658   -0.824356
 C         16.136859    2.776667   -1.294102
 H         16.480273    1.811686   -0.921943
 H         16.159318    2.782029   -2.387559
 H         16.759502    3.582042   -0.906277
 C          1.897009   -6.477529    0.107228
 C          1.529420   -7.822319    0.098810
 S          0.451083   -5.473423    0.092941
 C          0.150781   -8.051333    0.080547
 H          2.250280   -8.631472    0.106328
 C         -0.620496   -6.878275    0.074111
 H         -0.273479   -9.044664    0.072644
 F          6.667688   -7.192824    0.127375
 F          2.529306   -3.673813    0.146252
 C         -2.030153   -6.714451    0.055768
 C         -3.056207   -7.697302    0.035151
 S         -2.729399   -5.090925    0.054455
 C         -4.329326   -7.141513    0.018676
 C         -2.838187   -9.186096    0.030283
 C         -4.382653   -5.727549    0.025298
 H         -5.233305   -7.735363    0.001753
 H         -3.798682   -9.708170    0.012015
 H         -2.264888   -9.510014   -0.846713
 H         -2.293199   -9.519964    0.921495
 C         -5.536378   -4.919068    0.010989
 C         -6.889978   -5.435304   -0.015967
 C         -5.517185   -3.492685    0.018788
 N         -7.299241   -6.715003   -0.024063
 C         -8.045635   -4.600344   -0.029788
 C         -6.633986   -2.686374    0.005526
 F         -4.322758   -2.861160    0.040772
 N         -8.627408   -6.622726   -0.033380
 N         -9.132030   -5.390884   -0.045941
 C         -7.981193   -3.153175   -0.017827
 F         -6.410571   -1.353441    0.016042
 C         -9.475327   -7.798229   -0.133424
 C         -9.112301   -2.311645   -0.029899
 H        -10.428763   -7.573538    0.344651
 H         -9.641269   -8.060830   -1.183038
 H         -8.979000   -8.623132    0.377885
 C        -10.470041   -2.704121   -0.056267
 S         -9.027174   -0.542053   -0.011486
 C        -11.397854   -1.668279   -0.062798
 H        -10.750782   -3.748682   -0.071560
 C        -10.786467   -0.387773   -0.040979
 C        -12.879684   -1.927330   -0.095068
 C        -11.386696    0.900208   -0.043433
 H        -13.381785   -1.528209    0.794604
 H        -13.352794   -1.470384   -0.972487
 H        -13.074158   -3.002586   -0.132533
 C        -12.738830    1.268264   -0.032170
 S        -10.390741    2.360428   -0.063355
 C        -12.958999    2.652408   -0.037805
 H        -13.548336    0.553134   -0.014438
 C        -11.798035    3.420229   -0.051201
 H        -13.947231    3.088417   -0.025998
 C        -11.630771    4.860982   -0.053937
 C        -10.357249    5.467131    0.006778
 C        -12.710302    5.769404   -0.120240
 C        -10.210534    6.839643    0.000013
 H         -9.455065    4.868206    0.065671
 C        -12.558995    7.140099   -0.126620
 F        -13.977677    5.294253   -0.186780
 C        -11.285137    7.743815   -0.065290
 F         -8.946856    7.326839    0.062794
 H        -13.458554    7.740706   -0.183881
 C        -11.136887    9.196639   -0.070296
 C        -12.149266   10.137804   -0.112361
 S         -9.576254   10.011558   -0.025570
 C        -11.688925   11.481311   -0.109835
 H        -13.201418    9.879381   -0.143057
 C        -10.323190   11.571068   -0.065810
 H        -12.347651   12.342251   -0.138991
 H         -9.708949   12.461735   -0.053118
       120
S1: Total Energy = -6696.87797820
 C         11.818316    8.913558    0.503765
 C         13.121663    8.538081    0.295555
 C         13.244327    7.123502    0.166397
 C         12.051149    6.431529    0.274964
 S         10.728771    7.570337    0.546250
 H         14.187145    6.619618   -0.002653
 C         11.852607    4.995962    0.188651
 C         12.916671    4.058327   -0.033744
 N         14.235968    4.297261   -0.191931
 N         13.910678    2.063777   -0.321919
 C         12.712412    2.647720   -0.116173
 C         11.419667    2.032897    0.015517
 C         10.414775    2.973850    0.227283
 C         10.619090    4.365437    0.308728
 F          9.135120    2.569640    0.372227
 F          9.504100    5.096599    0.519414
 C         11.197389    0.609860   -0.066383
 C         12.148024   -0.382209   -0.283150
 C         11.650880   -1.698686   -0.318454
 C         10.261198   -1.747504   -0.122048
 S          9.610334   -0.129160    0.110349
 H         13.194969   -0.146782   -0.422314
 C          9.386478   -2.879179   -0.103630
 C          9.690875   -4.242364   -0.050738
 C          8.571950   -5.083691   -0.033718
 C          7.346346   -4.413738   -0.069893
 S          7.636024   -2.673282   -0.141774
 H         10.702274   -4.620189    0.001493
 H          8.646877   -6.159944    0.016688
 C         14.285151    9.490491    0.211996
 H         15.033251    9.273138    0.984185
 H         14.791838    9.415347   -0.757961
 H         13.960001   10.526996    0.341654
 C         12.546503   -2.881607   -0.569081
 H         12.649405   -3.513098    0.322740
 H         12.164174   -3.516450   -1.376854
 H         13.548489   -2.545560   -0.850241
 H         11.433469    9.916894    0.636033
 C          6.005182   -4.928808   -0.059277
 C          4.869295   -4.076821   -0.044604
 C          5.695787   -6.315191   -0.066072
 C          3.592265   -4.579720   -0.038501
 H          4.982492   -2.998368   -0.033089
 C          4.419045   -6.817302   -0.060443
 C          3.281221   -5.962920   -0.046490
 H          4.306113   -7.894318   -0.068131
 N         14.753633    3.087377   -0.350131
 C         16.170586    2.896846   -0.623584
 H         16.465814    1.924090   -0.231267
 H         16.351876    2.933259   -1.701692
 H         16.723640    3.694512   -0.128461
 C          1.949363   -6.489172   -0.040880
 C          1.578453   -7.842698   -0.050230
 S          0.496330   -5.488386   -0.021159
 C          0.206647   -8.071818   -0.042188
 H          2.301444   -8.649588   -0.062858
 C         -0.570687   -6.897830   -0.025520
 H         -0.217675   -9.065240   -0.047252
 F          6.709117   -7.214822   -0.082426
 F          2.570173   -3.690733   -0.021891
 C         -1.979218   -6.742370   -0.012076
 C         -2.999289   -7.725935   -0.019759
 S         -2.685605   -5.124346    0.019128
 C         -4.278786   -7.168401   -0.000912
 C         -2.781808   -9.214225   -0.045915
 C         -4.329924   -5.765438    0.022091
 H         -5.181392   -7.764851   -0.003426
 H         -3.742545   -9.736157   -0.052330
 H         -2.225091   -9.528934   -0.937020
 H         -2.220685   -9.559342    0.831126
 C         -5.494475   -4.944587    0.045630
 C         -6.841521   -5.459969    0.047686
 C         -5.471998   -3.535732    0.068980
 N         -7.254133   -6.741582    0.034678
 C         -7.997877   -4.622806    0.073842
 C         -6.600585   -2.720933    0.094049
 F         -4.283024   -2.894124    0.067569
 N         -8.579939   -6.644384    0.059460
 N         -9.087045   -5.415994    0.076237
 C         -7.929973   -3.184128    0.100388
 F         -6.364121   -1.390495    0.115134
 C         -9.431782   -7.819292   -0.025225
 C         -9.078256   -2.334104    0.127277
 H        -10.365182   -7.603235    0.494405
 H         -9.639027   -8.062189   -1.072026
 H         -8.913837   -8.651813    0.450650
 C        -10.422693   -2.720800    0.126957
 S         -8.983001   -0.572203    0.176587
 C        -11.352805   -1.671567    0.157684
 H        -10.711858   -3.762964    0.096860
 C        -10.735237   -0.407141    0.183580
 C        -12.836751   -1.921609    0.137946
 C        -11.331621    0.892201    0.201095
 H        -13.308836   -1.652934    1.091561
 H        -13.335180   -1.342999   -0.648366
 H        -13.040061   -2.980848   -0.042472
 C        -12.659613    1.266223    0.413949
 S        -10.356309    2.337931   -0.067718
 C        -12.881771    2.652523    0.370980
 H        -13.448459    0.557844    0.623906
 C        -11.740713    3.409116    0.128918
 H        -13.854201    3.095643    0.529525
 C        -11.575423    4.846038    0.030813
 C        -10.304372    5.447886   -0.099146
 C        -12.655838    5.756408    0.050792
 C        -10.161262    6.816951   -0.196592
 H         -9.401256    4.847708   -0.117189
 C        -12.508074    7.123658   -0.046436
 F        -13.921100    5.284269    0.164386
 C        -11.236540    7.723257   -0.175117
 F         -8.899899    7.300138   -0.315787
 H        -13.408514    7.725342   -0.025309
 C        -11.091317    9.171951   -0.272528
 C        -12.100849   10.116935   -0.225340
 S         -9.539029    9.978857   -0.480095
 C        -11.645089   11.455472   -0.353573
 H        -13.147219    9.863999   -0.099459
 C        -10.285769   11.539021   -0.499171
 H        -12.302119   12.318075   -0.336978
 H         -9.676182   12.425509   -0.614492
