       120
S0: Total Energy = -6696.93403040
 C         14.096834    7.507577    3.461277
 C         15.067878    7.395687    2.499415
 C         14.841107    6.266977    1.656170
 C         13.714457    5.532610    1.972752
 S         12.903070    6.259106    3.361210
 H         15.490708    5.997623    0.833414
 C         13.221306    4.337424    1.304307
 C         13.870857    3.733590    0.176160
 N         15.001539    4.116155   -0.455237
 N         14.224159    2.258312   -1.482090
 C         13.380256    2.560397   -0.472597
 C         12.189986    1.874525   -0.057080
 C         11.589376    2.487441    1.031989
 C         12.076248    3.649603    1.674466
 F         10.456377    1.976286    1.557095
 F         11.334486    4.076844    2.717679
 C         11.681404    0.679484   -0.707958
 C         12.222603    0.021432   -1.797479
 C         11.504584   -1.124600   -2.226068
 C         10.379937   -1.358930   -1.443891
 S         10.228957   -0.157275   -0.175848
 H         13.120694    0.370001   -2.290496
 C          9.393919   -2.413082   -1.566295
 C          9.554873   -3.699889   -2.047806
 C          8.370694   -4.470023   -2.011949
 C          7.272444   -3.801605   -1.501382
 S          7.730816   -2.160274   -1.066940
 H         10.507011   -4.093926   -2.380376
 H          8.339519   -5.502228   -2.340697
 C         16.231878    8.338010    2.341631
 H         17.188022    7.809171    2.438291
 H         16.226173    8.815776    1.354238
 H         16.207576    9.128729    3.097342
 C         11.929190   -1.942908   -3.416688
 H         12.529232   -2.813330   -3.120008
 H         11.066089   -2.317493   -3.976417
 H         12.543215   -1.341958   -4.094641
 H         14.014934    8.263280    4.232300
 C          5.919712   -4.327647   -1.342648
 C          4.877218   -3.610088   -0.744294
 C          5.572629   -5.623610   -1.793818
 C          3.597275   -4.131208   -0.597533
 C          4.299674   -6.142223   -1.647088
 C          3.250647   -5.414718   -1.035848
 H          4.101822   -7.138818   -2.023977
 N         15.147061    3.206488   -1.407349
 C         16.229075    3.290316   -2.378123
 H         16.472857    2.279907   -2.705025
 H         15.915409    3.892802   -3.235363
 H         17.086846    3.755087   -1.892982
 C          1.914410   -5.983810   -0.885274
 C          1.513660   -7.265736   -1.216548
 S          0.547435   -5.088050   -0.236025
 C          0.145806   -7.527190   -0.977241
 H          2.182758   -8.010159   -1.632057
 C         -0.540706   -6.448297   -0.449545
 H         -0.327371   -8.470263   -1.220212
 F          2.681701   -3.337842   -0.002195
 C         -1.940278   -6.349612   -0.089606
 C         -2.799963   -7.350836    0.347426
 S         -2.761643   -4.803112   -0.176608
 C         -4.102744   -6.856591    0.612089
 C         -2.426645   -8.793821    0.561694
 C         -4.271766   -5.500816    0.394172
 H         -4.907125   -7.484544    0.972417
 H         -3.103199   -9.260700    1.284197
 H         -2.492922   -9.374438   -0.367923
 H         -1.402764   -8.893702    0.936258
 C         -5.482157   -4.721458    0.582896
 C         -6.726635   -5.281092    1.028531
 C         -5.576851   -3.356408    0.353712
 N         -7.013802   -6.560318    1.350260
 C         -7.910250   -4.504608    1.211510
 C         -6.748983   -2.587836    0.533946
 F         -4.500219   -2.665779   -0.075229
 N         -8.290439   -6.511594    1.702059
 N         -8.888124   -5.330547    1.640463
 C         -7.967442   -3.091510    0.965867
 F         -6.620492   -1.274350    0.253938
 C         -9.024591   -7.715838    2.064038
 C         -9.165204   -2.291443    1.148370
 H         -9.808521   -7.438892    2.768300
 H         -9.468848   -8.164536    1.170975
 H         -8.326108   -8.415545    2.521835
 C        -10.409858   -2.725425    1.568618
 S         -9.214356   -0.558405    0.852476
 C        -11.403259   -1.716232    1.649544
 H        -10.606463   -3.763597    1.802664
 C        -10.911121   -0.468562    1.284340
 C        -12.822696   -2.012037    2.056081
 C        -11.609126    0.799351    1.224122
 H        -12.988978   -1.820574    3.124414
 H        -13.537273   -1.396802    1.499739
 H        -13.061776   -3.064457    1.874433
 C        -12.677911    1.238965    1.984227
 S        -11.129732    2.043110    0.082807
 C        -13.102062    2.547926    1.661134
 H        -13.119109    0.653715    2.781251
 C        -12.372544    3.148987    0.651593
 H        -13.916145    3.039816    2.180682
 C        -12.578419    4.482810    0.092410
 C        -11.712592    5.072068   -0.836076
 C        -13.682720    5.281104    0.472943
 C        -11.921248    6.346716   -1.350023
 C        -13.885664    6.552277   -0.033211
 C        -13.010267    7.140885   -0.975207
 F        -11.011820    6.800814   -2.238563
 H        -14.743687    7.116671    0.313307
 C        -13.256575    8.478897   -1.513966
 C        -14.392902    9.246288   -1.345086
 S        -12.081315    9.367263   -2.477076
 C        -14.324744   10.522323   -1.967306
 H        -15.264606    8.905111   -0.798762
 C        -13.135935   10.732059   -2.612647
 H        -15.129301   11.248870   -1.938195
 H        -12.818616   11.603337   -3.170228
 H        -14.399638    4.887172    1.183895
 H          6.325112   -6.232903   -2.280622
 F        -10.625201    4.406677   -1.280572
 F          5.082227   -2.359506   -0.279433
       120
T1: Total Energy = -6696.88504215
 C         12.941008    8.499269    1.109825
 C         14.119581    8.070745    0.554776
 C         14.075666    6.678668    0.244184
 C         12.881384    6.059032    0.558411
 S         11.769876    7.234831    1.262875
 H         14.902854    6.141059   -0.201013
 C         12.533275    4.659498    0.362961
 C         13.427932    3.689971   -0.201812
 N         14.696414    3.857835   -0.633349
 N         14.140218    1.687064   -0.931325
 C         13.077149    2.319063   -0.390256
 C         11.795241    1.781635   -0.032854
 C         10.958500    2.746649    0.507237
 C         11.306978    4.104421    0.694189
 F          9.710460    2.417580    0.900430
 F         10.338718    4.871335    1.237509
 C         11.425818    0.389723   -0.220641
 C         12.202661   -0.621113   -0.758070
 C         11.575357   -1.891130   -0.825678
 C         10.278611   -1.861066   -0.323959
 S          9.854642   -0.254212    0.236422
 H         13.209880   -0.443984   -1.112221
 C          9.315700   -2.937675   -0.232472
 C          9.541173   -4.297311   -0.098847
 C          8.357749   -5.063387   -0.027878
 C          7.191444   -4.319627   -0.100569
 S          7.591092   -2.615202   -0.278062
 H         10.530371   -4.728941   -0.013907
 H          8.370261   -6.140475    0.091073
 C         15.316766    8.947816    0.299463
 H         16.197604    8.587785    0.845132
 H         15.580377    8.961205   -0.765210
 H         15.126899    9.979108    0.611359
 C         12.259677   -3.097035   -1.412932
 H         12.710712   -3.728671   -0.636191
 H         11.560086   -3.722938   -1.976535
 H         13.064192   -2.789223   -2.087924
 H         12.692305    9.499674    1.440971
 C          5.825588   -4.823445   -0.056708
 C          4.694111   -3.995787   -0.084649
 C          5.549038   -6.211631    0.020137
 C          3.400347   -4.494242   -0.040029
 C          4.262362   -6.709313    0.066057
 C          3.119682   -5.867900    0.037576
 H          4.126698   -7.782797    0.124981
 N         15.047707    2.646829   -1.039868
 C         16.345325    2.398311   -1.651856
 H         16.630352    1.367994   -1.440972
 H         16.283823    2.552890   -2.732857
 H         17.064555    3.092724   -1.218763
 C          1.775971   -6.408764    0.082650
 C          1.416427   -7.754227    0.148945
 S          0.323285   -5.413758    0.060377
 C          0.039200   -7.990493    0.181383
 H          2.141604   -8.559016    0.172520
 C         -0.739947   -6.823150    0.141023
 H         -0.378823   -8.985230    0.232374
 F          2.397293   -3.592040   -0.074113
 C         -2.150062   -6.666736    0.155947
 C         -3.170824   -7.654080    0.217364
 S         -2.858775   -5.048312    0.092617
 C         -4.446804   -7.105721    0.212441
 C         -2.943679   -9.140115    0.281772
 C         -4.508646   -5.692970    0.148559
 H         -5.347334   -7.703564    0.254497
 H         -3.900940   -9.666976    0.321113
 H         -2.396565   -9.505964   -0.595487
 H         -2.368393   -9.425240    1.170875
 C         -5.666544   -4.891559    0.130635
 C         -7.017549   -5.413870    0.176632
 C         -5.655394   -3.466165    0.063266
 N         -7.419440   -6.693803    0.248362
 C         -8.177800   -4.585104    0.160327
 C         -6.776516   -2.666320    0.047346
 F         -4.464451   -2.829811    0.010280
 N         -8.747793   -6.607460    0.280706
 N         -9.259608   -5.379617    0.222421
 C         -8.121102   -3.139087    0.096001
 F         -6.560723   -1.333976   -0.019815
 C         -9.591969   -7.789661    0.269193
 C         -9.256920   -2.303199    0.082231
 H        -10.527306   -7.547048    0.773656
 H         -9.797671   -8.102129   -0.759561
 H         -9.070975   -8.587601    0.798431
 C        -10.612098   -2.701003    0.128597
 S         -9.180546   -0.535298    0.001179
 C        -11.545006   -1.669079    0.102872
 H        -10.887924   -3.745611    0.182212
 C        -10.940420   -0.388040    0.033461
 C        -13.025483   -1.934365    0.150007
 C        -11.545567    0.898812   -0.007042
 H        -13.496431   -1.456277    1.017350
 H        -13.534288   -1.562053   -0.747445
 H        -13.214496   -3.009133    0.217900
 C        -12.900257    1.257161   -0.013408
 S        -10.554073    2.359120   -0.059625
 C        -13.121231    2.639226   -0.058932
 H        -13.707915    0.540251    0.011390
 C        -11.964100    3.411941   -0.090022
 H        -14.117629    3.065093   -0.068968
 C        -11.882519    4.861048   -0.139735
 C        -10.671336    5.568157   -0.160009
 C        -13.046298    5.670503   -0.169877
 C        -10.614196    6.954728   -0.206586
 C        -12.987035    7.049911   -0.215420
 C        -11.760944    7.758126   -0.236437
 F         -9.384409    7.511793   -0.221465
 H        -13.917443    7.605215   -0.233855
 C        -11.722337    9.217987   -0.286720
 C        -12.803487   10.078271   -0.343491
 S        -10.227869   10.150285   -0.277706
 C        -12.446463   11.452660   -0.378049
 H        -13.833074    9.740632   -0.361922
 C        -11.091518   11.647290   -0.347873
 H        -13.168959   12.260049   -0.424083
 H        -10.546590   12.581898   -0.364182
 H        -14.020601    5.196352   -0.156431
 H          6.374371   -6.913631    0.040293
 F         -9.493100    4.910140   -0.134712
 F          4.828192   -2.654814   -0.160603
       120
S1: Total Energy = -6696.86536618
 C         12.584784    8.646201    0.625371
 C         13.853087    8.192172    0.364202
 C         13.878589    6.775887    0.201698
 C         12.646995    6.160357    0.336987
 S         11.411635    7.375722    0.677189
 H         14.780177    6.216034   -0.010410
 C         12.352017    4.742823    0.227894
 C         13.345758    3.742198   -0.040621
 N         14.673981    3.896786   -0.226840
 N         14.197656    1.693003   -0.393718
 C         13.046127    2.350282   -0.146292
 C         11.719043    1.819397    0.005809
 C         10.784585    2.819296    0.263133
 C         11.082961    4.192504    0.367651
 F          9.485029    2.497718    0.433209
 F         10.024563    4.990479    0.622441
 C         11.400296    0.415924   -0.100335
 C         12.276457   -0.631458   -0.363559
 C         11.690781   -1.911051   -0.413330
 C         10.306889   -1.871780   -0.181137
 S          9.772446   -0.219594    0.103242
 H         13.333005   -0.463309   -0.526159
 C          9.356190   -2.942092   -0.164797
 C          9.572599   -4.322847   -0.135549
 C          8.397812   -5.081906   -0.109691
 C          7.219909   -4.330676   -0.116863
 S          7.625537   -2.614695   -0.166985
 H         10.556283   -4.769966   -0.105685
 H          8.407833   -6.164825   -0.076478
 C         15.072672    9.069362    0.259666
 H         15.828896    8.789692    1.003378
 H         15.542937    8.980769   -0.727342
 H         14.819326   10.121863    0.417694
 C         12.498188   -3.144938   -0.713570
 H         12.590538   -3.797080    0.164508
 H         12.047730   -3.739564   -1.516755
 H         13.509822   -2.869666   -1.024872
 H         12.271103    9.669089    0.791459
 C          5.871668   -4.831768   -0.097612
 C          4.729972   -4.002607   -0.087311
 C          5.591128   -6.229190   -0.086780
 C          3.443480   -4.500882   -0.068060
 C          4.309877   -6.727392   -0.067202
 C          3.158061   -5.884713   -0.056826
 H          4.174569   -7.802463   -0.059374
 N         15.105953    2.659064   -0.422394
 C         16.500403    2.381475   -0.734320
 H         16.738725    1.382281   -0.370831
 H         16.659231    2.431232   -1.815432
 H         17.116654    3.128803   -0.235280
 C          1.829242   -6.420885   -0.038198
 C          1.467058   -7.776471   -0.032599
 S          0.368994   -5.429796   -0.018637
 C          0.096455   -8.014536   -0.013363
 H          2.194429   -8.579322   -0.042926
 C         -0.688985   -6.846061   -0.002610
 H         -0.321136   -9.010837   -0.006555
 F          2.436020   -3.602541   -0.060005
 C         -2.098369   -6.698635    0.018236
 C         -3.112696   -7.687972    0.027041
 S         -2.814244   -5.084403    0.037405
 C         -4.395421   -7.138075    0.048258
 C         -2.886095   -9.175126    0.014620
 C         -4.455129   -5.735040    0.057215
 H         -5.294366   -7.739964    0.057490
 H         -3.843556   -9.703121    0.020136
 H         -2.333436   -9.495542   -0.877018
 H         -2.316751   -9.507821    0.891189
 C         -5.623896   -4.920804    0.079211
 C         -6.968060   -5.443828    0.094602
 C         -5.609524   -3.511169    0.087434
 N         -7.373165   -6.727834    0.097954
 C         -8.129248   -4.612959    0.118196
 C         -6.742353   -2.702867    0.110054
 F         -4.424005   -2.862973    0.072466
 N         -8.699621   -6.638169    0.129441
 N         -9.213779   -5.412211    0.135461
 C         -8.069435   -3.173646    0.128581
 F         -6.513805   -1.370951    0.115370
 C         -9.544931   -7.818554    0.061155
 C         -9.222281   -2.329998    0.151986
 H        -10.476434   -7.603186    0.584546
 H         -9.757464   -8.073021   -0.981903
 H         -9.019280   -8.643533    0.541753
 C        -10.564623   -2.724395    0.163357
 S         -9.137106   -0.567030    0.178774
 C        -11.500423   -1.680262    0.186837
 H        -10.847901   -3.768490    0.147881
 C        -10.890785   -0.411350    0.194326
 C        -12.982722   -1.941051    0.180555
 C        -11.493055    0.885614    0.200621
 H        -13.453845   -1.643667    1.126037
 H        -13.487995   -1.393365   -0.623505
 H        -13.178957   -3.007137    0.036261
 C        -12.828767    1.249341    0.389483
 S        -10.518642    2.334349   -0.046064
 C        -13.052376    2.633060    0.342086
 H        -13.619676    0.538079    0.579947
 C        -11.912233    3.397304    0.117642
 H        -14.037055    3.064664    0.477943
 C        -11.835220    4.842736    0.019389
 C        -10.637911    5.542744   -0.197037
 C        -12.988646    5.659620    0.143383
 C        -10.584901    6.926559   -0.287473
 C        -12.932990    7.036738    0.055774
 C        -11.721940    7.736702   -0.168255
 F         -9.369664    7.476395   -0.497734
 H        -13.852470    7.598637    0.171547
 C        -11.689313    9.192640   -0.269317
 C        -12.773482   10.052067   -0.276775
 S        -10.198538   10.124516   -0.384237
 C        -12.421020   11.424703   -0.367753
 H        -13.801656    9.713176   -0.226742
 C        -11.066964   11.619976   -0.430238
 H        -13.145946   12.230991   -0.388812
 H        -10.525842   12.553712   -0.507872
 H        -13.950887    5.192361    0.316924
 H          6.417045   -6.930643   -0.095766
 F         -9.470899    4.877352   -0.331396
 F          4.868551   -2.659770   -0.097592
