       132
S0: Total Energy = -8197.62041703
 C          0.217508    1.138550    0.616710
 C          0.532317    2.426888    0.216980
 S          1.686659    0.204782    0.835505
 C          1.915447    2.668281    0.090940
 C          2.707029    1.570939    0.390655
 H          2.335870    3.620765   -0.201641
 C          4.156644    1.497702    0.372013
 C          5.002058    2.604534    0.024001
 C          4.889477    0.359660    0.676767
 N          4.652172    3.861260   -0.323180
 C          6.426766    2.522679    0.004092
 C          6.299918    0.278530    0.656791
 F          4.255766   -0.781224    1.022873
 N          5.815973    4.461868   -0.524759
 N          6.908440    3.731624   -0.354703
 C          7.149391    1.325689    0.329715
 F          6.808203   -0.928157    0.986297
 C          5.888759    5.839789   -0.990215
 C          8.597725    1.232750    0.307695
 H          6.815212    6.276550   -0.618603
 H          5.878265    5.864968   -2.083577
 H          5.025708    6.377557   -0.598973
 C          9.501173    2.235921   -0.005401
 S          9.466901   -0.246435    0.710270
 C         10.850376    1.836410    0.077556
 H          9.184729    3.233707   -0.277258
 C         11.026884    0.515392    0.455578
 C         12.278880   -0.200014    0.592017
 C         12.584525   -1.391516    1.237438
 S         13.717528    0.489151   -0.152367
 C         13.967994   -1.717756    1.133844
 C         14.730914   -0.812494    0.435202
 H         14.393379   -2.600271    1.600097
 C         16.167882   -0.881072    0.124192
 C         16.720388   -2.021702   -0.476364
 C         17.062488    0.178799    0.407716
 C         18.100948   -2.142680   -0.810213
 C         18.442843    0.055559    0.073445
 C         18.995087   -1.083764   -0.526974
 C         20.434016   -1.153633   -0.839692
 C         21.186111   -0.269292   -1.573753
 S         21.459375   -2.433131   -0.207104
 C         22.578616   -0.599630   -1.654627
 H         20.751960    0.594374   -2.067378
 C         22.863035   -1.745948   -0.961217
 H         23.824475   -2.230576   -0.849045
 S         19.342856    1.487574    0.576594
 S         15.824102   -3.454702   -0.983454
 C         18.381046   -3.392212   -1.475984
 C         16.786661    1.428412    1.075213
 H         19.365465   -3.674564   -1.827393
 H         15.804734    1.713674    1.431045
 C         17.282805   -4.172255   -1.630279
 C         17.886978    2.206534    1.227039
 H         17.943163    3.182321    1.692105
 H         17.228280   -5.148653   -2.094222
 H         11.678751    2.507219   -0.123564
 H         -0.219916    3.186053    0.031294
 C         23.590273    0.215662   -2.415317
 H         23.327720    0.285145   -3.478134
 H         23.645816    1.240979   -2.029469
 H         24.589175   -0.224799   -2.344069
 C         11.615333   -2.263703    1.992575
 H         10.984978   -1.682539    2.674512
 H         10.944916   -2.809762    1.316903
 H         12.156917   -3.006405    2.585888
 C         -1.103488    0.572039    0.796492
 S         -2.471324    1.398937    0.059509
 C         -1.526195   -0.560226    1.481106
 C         -3.611151    0.235586    0.702951
 C         -2.939379   -0.731297    1.412820
 C         -0.644089   -1.515367    2.242643
 C         -5.052765    0.320380    0.419783
 H         -3.450656   -1.547412    1.912544
 H         -1.251252   -2.169020    2.875951
 H         -0.062611   -2.158786    1.570277
 H          0.069875   -0.990442    2.886585
 C         -5.816669    1.482546    0.684547
 C         -5.742087   -0.767817   -0.135036
 C         -7.208263    1.507595    0.376925
 C         -5.387863    2.710411    1.310271
 C         -7.133740   -0.742750   -0.442427
 S         -5.020337   -2.305061   -0.613929
 C         -7.897350    0.419736   -0.178566
 S         -7.930273    3.044877    0.855101
 H         -4.373067    2.891602    1.641056
 C         -6.389842    3.612033    1.458511
 C         -7.562886   -1.970524   -1.068062
 C         -6.561020   -2.872174   -1.216701
 C         -9.338069    0.505874   -0.466254
 H         -6.326740    4.600131    1.895798
 H         -8.577863   -2.151608   -1.398353
 H         -6.624325   -3.860310   -1.653874
 S        -10.482284   -0.653209    0.177042
 C        -10.005119    1.469894   -1.184117
 C        -11.845905    0.171469   -0.570827
 C        -11.418080    1.299897   -1.258996
 H         -9.490469    2.283293   -1.684808
 C        -13.168309   -0.393055   -0.395877
 C        -12.294408    2.253039   -2.029558
 S        -14.636712    0.524164   -0.681541
 C        -13.486757   -1.667954    0.042392
 H        -12.987583    1.727066   -2.695264
 H        -12.898493    2.882171   -1.363715
 H        -11.681102    2.920330   -2.642298
 C        -15.660513   -0.830269   -0.210652
 C        -14.871380   -1.911766    0.146139
 H        -12.736195   -2.416546    0.272457
 C        -17.111107   -0.764163   -0.228974
 H        -15.294123   -2.855158    0.463799
 C        -17.959275   -1.860430    0.144120
 C        -17.841287    0.354966   -0.599345
 C        -19.384577   -1.786329    0.123716
 N        -17.611975   -3.099001    0.553589
 C        -19.253487    0.427309   -0.620272
 F        -17.205506    1.484594   -0.976999
 C        -20.104270   -0.609693   -0.271484
 N        -19.869157   -2.982182    0.521741
 N        -18.777681   -3.697436    0.750732
 F        -19.757573    1.615308   -1.015971
 C        -21.557108   -0.526252   -0.297487
 C        -18.855377   -5.054904    1.272081
 S        -22.425283    0.930893   -0.785362
 C        -22.461815   -1.518520    0.036398
 H        -17.980907   -5.604074    0.924446
 H        -18.870795   -5.034004    2.365487
 H        -19.770779   -5.511867    0.897421
 C        -23.956755    0.169463   -0.528503
 C        -23.819632   -1.122066   -0.095240
 H        -22.147004   -2.499641    0.365055
 H        -24.868278    0.722637   -0.713086
 H        -24.658637   -1.773330    0.124143
       132
T1: Total Energy = -8197.56945222
 C         -0.212596    0.694830    0.131339
 C         -0.546410    2.006025    0.520414
 S         -1.691029   -0.231254   -0.157675
 C         -1.904629    2.264214    0.586144
 C         -2.724259    1.157371    0.248519
 H         -2.330218    3.217871    0.865472
 C         -4.131592    1.118706    0.222600
 C         -4.980138    2.246727    0.554039
 C         -4.901211   -0.034423   -0.130195
 N         -4.618599    3.485737    0.923986
 C         -6.404765    2.191050    0.521033
 C         -6.274121   -0.087902   -0.162154
 F         -4.247325   -1.171149   -0.461602
 N         -5.779484    4.119952    1.087903
 N         -6.878544    3.397399    0.871710
 C         -7.146552    1.001090    0.152598
 F         -6.821500   -1.271402   -0.521577
 C         -5.844421    5.482091    1.587019
 C         -8.552589    0.930116    0.113478
 H         -6.747805    5.948452    1.193513
 H         -5.873205    5.488400    2.681456
 H         -4.959806    6.016374    1.240066
 C         -9.470370    1.969066    0.410815
 S         -9.454681   -0.534024   -0.336851
 C        -10.800156    1.605621    0.283838
 H         -9.133713    2.952862    0.706564
 C        -11.012353    0.273284   -0.117362
 C        -12.267131   -0.371201   -0.315337
 C        -12.582382   -1.666029   -0.758386
 S        -13.748894    0.532466    0.029402
 C        -13.978681   -1.888366   -0.811552
 C        -14.766318   -0.817124   -0.437402
 H        -14.402344   -2.825756   -1.155748
 C        -16.229568   -0.757582   -0.351688
 C        -16.956112   -1.773139    0.293220
 C        -16.988743    0.306048   -0.903031
 C        -18.375639   -1.764897    0.417822
 C        -18.408484    0.309380   -0.776326
 C        -19.132157   -0.703572   -0.132829
 C        -20.601964   -0.645616   -0.043865
 C        -21.382376    0.376173    0.439971
 S        -21.620366   -1.940975   -0.655478
 C        -22.793006    0.141367    0.344132
 H        -20.959490    1.274615    0.878156
 C        -23.061247   -1.073688   -0.228260
 H        -24.030756   -1.513041   -0.425426
 S        -19.112235    1.705967   -1.592980
 S        -16.264917   -3.168740    1.123070
 C        -18.851954   -2.889182    1.187136
 C        -16.523908    1.432241   -1.676544
 H        -19.897341   -3.059730    1.411212
 H        -15.482866    1.609767   -1.913900
 C        -17.855840   -3.702756    1.615629
 C        -17.526985    2.243348   -2.096237
 H        -17.438236    3.145908   -2.687049
 H        -17.949053   -4.605428    2.205536
 H        -11.618500    2.291923    0.474724
 H          0.206279    2.753529    0.748083
 C        -23.838503    1.113345    0.822524
 H        -23.729396    1.319838    1.894327
 H        -23.757311    2.074024    0.299346
 H        -24.847375    0.724318    0.656218
 C        -11.590733   -2.725047   -1.160222
 H        -10.936993   -2.388900   -1.973711
 H        -10.943670   -3.018914   -0.324866
 H        -12.114716   -3.621755   -1.503314
 C          1.096143    0.151489   -0.009478
 S          2.486203    1.172567    0.386561
 C          1.531332   -1.117163   -0.427068
 C          3.625940   -0.094994   -0.025174
 C          2.941506   -1.227992   -0.420895
 C          0.644033   -2.254464   -0.857899
 C          5.074715    0.080430    0.119065
 H          3.452004   -2.130617   -0.739148
 H          1.250906   -3.111158   -1.164752
 H         -0.015641   -2.589028   -0.048132
 H          0.003845   -1.978932   -1.704317
 C          5.769945    1.198714   -0.408441
 C          5.852316   -0.872367    0.799559
 C          7.178538    1.315140   -0.225861
 C          5.248492    2.279458   -1.210089
 C          7.260482   -0.753093    0.981165
 S          5.236848   -2.311911    1.613500
 C          7.953749    0.363205    0.452960
 S          7.801311    2.756605   -1.030061
 H          4.206930    2.372044   -1.489524
 C          6.200006    3.164551   -1.598686
 C          7.788916   -1.831257    1.781871
 C          6.841453   -2.717000    2.176770
 C          9.407167    0.536863    0.596638
 H          6.064263    4.053475   -2.201075
 H          8.832979   -1.918982    2.054051
 H          6.979811   -3.604884    2.780081
 S         10.542731   -0.697512    0.092102
 C         10.090537    1.638161    1.056176
 C         11.926604    0.289196    0.548790
 C         11.510390    1.519567    1.041297
 H          9.585408    2.520430    1.435045
 C         13.252519   -0.267112    0.373006
 C         12.407312    2.623773    1.537903
 S         14.694168    0.729128    0.288356
 C         13.589090   -1.599836    0.202754
 H         13.189820    2.247965    2.205977
 H         12.908038    3.145555    0.712545
 H         11.823481    3.367730    2.088064
 C         15.733386   -0.670305    0.031486
 C         14.967839   -1.825012    0.012748
 H         12.857107   -2.399967    0.228285
 C         17.174115   -0.564438   -0.117646
 H         15.404272   -2.804897   -0.124956
 C         18.035594   -1.695296   -0.315854
 C         17.880047    0.628780   -0.093433
 C         19.450735   -1.581711   -0.463538
 N         17.712401   -3.003916   -0.389564
 C         19.282260    0.740520   -0.239584
 F         17.228312    1.798385    0.079732
 C         20.145704   -0.326952   -0.428857
 N         19.953553   -2.824678   -0.623366
 N         18.882055   -3.601591   -0.564855
 F         19.762641    2.000668   -0.183773
 C         21.588053   -0.202045   -0.578328
 C         18.977073   -5.041153   -0.762901
 S         22.426750    1.349973   -0.525732
 C         22.503472   -1.220574   -0.776344
 H         18.146386   -5.511283   -0.237778
 H         18.923212   -5.274952   -1.829958
 H         19.930032   -5.380230   -0.357482
 C         23.961276    0.589901   -0.767821
 C         23.846326   -0.769529   -0.883290
 H         22.206718   -2.258565   -0.841186
 H         24.858028    1.193976   -0.810928
 H         24.690858   -1.431664   -1.039923
       132
S1: Total Energy = -8197.54771096
 C         -0.215176    0.774256   -0.056834
 C         -0.545586    2.112539    0.221321
 S         -1.699273   -0.169434   -0.240395
 C         -1.908907    2.371784    0.283688
 C         -2.721534    1.245660    0.057727
 H         -2.332445    3.346606    0.482116
 C         -4.145913    1.197723    0.050584
 C         -4.987512    2.344602    0.289524
 C         -4.903991    0.032584   -0.187891
 N         -4.626368    3.615700    0.546887
 C         -6.414748    2.283407    0.274870
 C         -6.293902   -0.025103   -0.201689
 F         -4.263349   -1.135412   -0.425429
 N         -5.787830    4.254319    0.666261
 N         -6.888055    3.519922    0.524003
 C         -7.150250    1.071255    0.020390
 F         -6.829346   -1.242642   -0.451001
 C         -5.850995    5.658160    1.035130
 C         -8.578018    0.999990   -0.000173
 H         -6.757428    6.084764    0.605494
 H         -5.873420    5.764979    2.124318
 H         -4.968284    6.156961    0.634989
 C         -9.485076    2.047718    0.208774
 S         -9.470114   -0.495593   -0.317376
 C        -10.825242    1.668440    0.117949
 H         -9.153998    3.055959    0.416082
 C        -11.028349    0.314553   -0.164879
 C        -12.283164   -0.360607   -0.300181
 C        -12.588541   -1.676717   -0.670751
 S        -13.766235    0.538853    0.035167
 C        -13.982606   -1.920659   -0.682127
 C        -14.779462   -0.842929   -0.344261
 H        -14.397917   -2.878030   -0.977772
 C        -16.237452   -0.799475   -0.231788
 C        -16.943932   -1.826565    0.423017
 C        -17.022420    0.259123   -0.763407
 C        -18.360073   -1.833577    0.575092
 C        -18.438864    0.246283   -0.607559
 C        -19.140079   -0.777559    0.044649
 C        -20.607203   -0.735844    0.162136
 C        -21.390641    0.283752    0.647284
 S        -21.623286   -2.050381   -0.413355
 C        -22.799724    0.032202    0.581523
 H        -20.970032    1.191913    1.067109
 C        -23.065174   -1.193252    0.029969
 H        -24.033317   -1.645705   -0.142804
 S        -19.175793    1.635355   -1.407498
 S        -16.223962   -3.213280    1.242686
 C        -18.810520   -2.962037    1.353341
 C        -16.588357    1.390153   -1.546697
 H        -19.849537   -3.142499    1.598015
 H        -15.555779    1.579398   -1.809634
 C        -17.798333   -3.765089    1.764145
 C        -17.609201    2.191142   -1.944099
 H        -17.542790    3.094607   -2.536401
 H        -17.870922   -4.668416    2.355929
 H        -11.644618    2.367279    0.249948
 H          0.207473    2.879613    0.367825
 C        -23.846878    0.998395    1.067947
 H        -23.719729    1.219233    2.134883
 H        -23.786430    1.953375    0.531716
 H        -24.854265    0.596213    0.925698
 C        -11.590342   -2.739478   -1.045598
 H        -10.940404   -2.421290   -1.869342
 H        -10.938611   -3.004978   -0.203991
 H        -12.108056   -3.649841   -1.361443
 C          1.086884    0.221988   -0.161294
 S          2.479089    1.254397    0.193242
 C          1.523341   -1.072754   -0.520208
 C          3.628504   -0.036894   -0.156558
 C          2.920261   -1.189349   -0.503697
 C          0.628204   -2.215863   -0.915851
 C          5.055956    0.121183   -0.017931
 H          3.418926   -2.101947   -0.808828
 H          1.228437   -3.082152   -1.208417
 H         -0.024178   -2.528312   -0.091245
 H         -0.020486   -1.956043   -1.760668
 C          5.752308    1.327082   -0.359553
 C          5.871236   -0.928400    0.484174
 C          7.157227    1.427021   -0.175318
 C          5.219433    2.501752   -0.999877
 C          7.275269   -0.823422    0.664375
 S          5.282369   -2.465829    1.112081
 C          7.965429    0.379345    0.321679
 S          7.759868    2.968375   -0.782885
 H          4.179920    2.623977   -1.271640
 C          6.159276    3.445367   -1.269661
 C          7.821757   -1.993232    1.305288
 C          6.888678   -2.937173    1.588842
 C          9.402480    0.538955    0.460996
 H          6.010121    4.408342   -1.740203
 H          8.865861   -2.105635    1.564439
 H          7.042117   -3.897314    2.063800
 S         10.546556   -0.708844   -0.017658
 C         10.101915    1.655201    0.894117
 C         11.933591    0.290184    0.409330
 C         11.510226    1.537842    0.879516
 H          9.603667    2.539427    1.275310
 C         13.250735   -0.258769    0.240158
 C         12.407783    2.649135    1.356131
 S         14.717293    0.704547    0.367811
 C         13.580678   -1.575318   -0.069917
 H         13.109708    2.308368    2.125848
 H         13.003646    3.071881    0.537819
 H         11.811439    3.461132    1.781995
 C         15.745327   -0.680644    0.004410
 C         14.958197   -1.808884   -0.199873
 H         12.836598   -2.355309   -0.190676
 C         17.188156   -0.595756   -0.049510
 H         15.386369   -2.774714   -0.430947
 C         18.040016   -1.715750   -0.340052
 C         17.916580    0.568886    0.166878
 C         19.463535   -1.620617   -0.390661
 N         17.698010   -2.995189   -0.597676
 C         19.323368    0.660820    0.116885
 F         17.275068    1.723192    0.449496
 C         20.178662   -0.398526   -0.156737
 N         19.952351   -2.845818   -0.678219
 N         18.865251   -3.597090   -0.780243
 F         19.825266    1.890490    0.359784
 C         21.627252   -0.293516   -0.204897
 C         18.945193   -5.001560   -1.155084
 S         22.490601    1.219346    0.085364
 C         22.535479   -1.304362   -0.471844
 H         18.090894   -5.519283   -0.719984
 H         18.923776   -5.099632   -2.244269
 H         19.878994   -5.406042   -0.765528
 C         24.022715    0.454461   -0.157898
 C         23.889662   -0.878165   -0.444503
 H         22.224112   -2.319009   -0.679614
 H         24.931602    1.035773   -0.074626
 H         24.730012   -1.537965   -0.630871
