       104
S0: Total Energy = -5593.46939308
 C         15.185043    3.985849    0.151578
 C         13.833914    3.644542    0.215907
 C         13.538996    2.271310    0.082805
 C         14.591071    1.326621   -0.109724
 C         15.940499    1.667011   -0.174275
 C         16.236456    3.040307   -0.041863
 C         17.528094    3.683230   -0.079384
 H         18.461992    3.153782   -0.228155
 C         17.465814    5.028507    0.084498
 S         15.833023    5.623580    0.297552
 C         12.289061    0.274320   -0.033729
 S         13.949066   -0.311286   -0.258749
 C         12.253625    1.633989    0.126742
 H         11.327429    2.173268    0.290513
 H         18.289084    5.730980    0.096135
 C         11.190949   -0.663687   -0.040102
 C         11.232949   -2.044313   -0.059521
 S          9.524372   -0.110772   -0.024925
 C          9.958757   -2.657584   -0.054923
 H         12.161894   -2.604757   -0.066905
 C          8.905660   -1.761346   -0.032245
 H          9.803743   -3.728291   -0.063926
 C          7.477819   -2.028657   -0.017319
 C          6.511742   -1.023206    0.018314
 C          6.938284   -3.353935   -0.036611
 C          5.124932   -1.271910    0.031181
 C          5.533873   -3.605845   -0.022792
 C          4.567939   -2.550548    0.010537
 N          7.576238   -4.545489   -0.076137
 N          5.349037   -4.944893   -0.054319
 N          6.584191   -5.424288   -0.088602
 C          6.841291   -6.857087   -0.064721
 H          6.016633   -7.360078   -0.568942
 H          7.781252   -7.043539   -0.583339
 H          6.912259   -7.206167    0.969458
 C          3.136266   -2.795865    0.023223
 C          2.459417   -4.002205    0.027879
 S          1.983574   -1.462547    0.036967
 C          1.051945   -3.869265    0.037980
 H          2.976138   -4.952709    0.020982
 C          0.611933   -2.559353    0.040491
 H          0.375570   -4.717565    0.035467
 C         -0.742530   -2.060745    0.044608
 C         -1.180122   -0.766289   -0.064259
 S         -2.098546   -3.192955    0.208691
 C         -2.604999   -0.616261   -0.026905
 H         -0.498014    0.067885   -0.184305
 C         -3.267810   -1.873693    0.105751
 C         -3.354287    0.578092   -0.116006
 C         -4.651764   -2.020768    0.149803
 C         -4.738202    0.430918   -0.072619
 C         -5.400995   -0.826481    0.060340
 S         -5.907638    1.749833   -0.178646
 C         -6.826028   -0.676720    0.094726
 C         -7.263811    0.617325   -0.017541
 H         -7.508200   -1.511138    0.212595
 C         -8.618706    1.115066   -0.021915
 C         -9.060227    2.424003   -0.042927
 S         -9.989414    0.016925   -0.004327
 C        -10.468311    2.555385   -0.040311
 H         -8.384985    3.273186   -0.053416
 C        -11.143474    1.348788   -0.016223
 H        -10.986212    3.505203   -0.052611
 C        -12.575711    1.101250   -0.002359
 C        -13.130306   -0.176012    0.061436
 C        -13.543406    2.153710   -0.055742
 C        -14.518023   -0.426352    0.074690
 C        -14.947704    1.899273   -0.041748
 N        -13.361285    3.492027   -0.119722
 C        -15.485054    0.575571    0.026676
 N        -15.588217    3.089430   -0.097135
 N        -14.597994    3.969068   -0.135901
 C        -16.916656    0.305382    0.043129
 C        -14.857015    5.395542   -0.268212
 C        -17.970442    1.196632   -0.007722
 S        -17.534774   -1.342970    0.138861
 H        -15.808921    5.615143    0.214330
 H        -14.045155    5.936767    0.216913
 H        -14.905113    5.669371   -1.326128
 C        -19.249693    0.573703    0.029078
 H        -17.818103    2.266095   -0.069525
 C        -19.177657   -0.790223    0.107815
 H        -20.185639    1.120999   -0.002084
 H        -19.986645   -1.507271    0.149761
 C         -2.694645    1.924827   -0.275975
 H         -2.521469    2.163686   -1.333734
 H         -3.315514    2.724147    0.142375
 H         -1.726935    1.962451    0.232764
 C         -5.311558   -3.367474    0.309387
 H         -4.689799   -4.167068   -0.107110
 H         -5.486963   -3.605588    1.366944
 H         -6.278223   -3.405530   -0.201322
 C         12.760796    4.679805    0.441506
 H         11.805920    4.376019    0.003746
 H         12.593019    4.856439    1.512361
 H         13.036470    5.640158   -0.007745
 C         17.008601    0.625761   -0.398140
 H         16.763225   -0.308829    0.119254
 H         17.118588    0.387920   -1.464610
 H         17.983236    0.957162   -0.031033
 H        -14.832295   -1.464785    0.126331
 H        -12.472056   -1.038937    0.106208
 H          4.467909   -0.407446    0.060321
 H          6.827914    0.015744    0.038749
       104
T1: Total Energy = -5593.42143973
 C        -15.138199    3.989975    0.005048
 C        -13.786711    3.649678    0.015071
 C        -13.498767    2.265663    0.008718
 C        -14.560323    1.308562   -0.001241
 C        -15.908897    1.648817   -0.012572
 C        -16.197222    3.032145   -0.005242
 C        -17.490263    3.668566   -0.000949
 H        -18.428968    3.126805    0.004308
 C        -17.424081    5.024738    0.002825
 S        -15.784527    5.636049    0.001454
 C        -12.248922    0.260912   -0.000135
 S        -13.923178   -0.339762    0.005575
 C        -12.214717    1.641169    0.002907
 H        -11.283181    2.195756   -0.004641
 H        -18.248465    5.726004    0.005770
 C        -11.156331   -0.654879   -0.004479
 C        -11.191145   -2.054518   -0.014606
 S         -9.484184   -0.092878    0.004813
 C         -9.939567   -2.662655   -0.015422
 H        -12.122764   -2.610864   -0.021706
 C         -8.857791   -1.755987   -0.006493
 H         -9.779907   -3.732450   -0.022675
 C         -7.473172   -2.028451   -0.006334
 C         -6.477093   -0.997433   -0.000335
 C         -6.925179   -3.365178   -0.013904
 C         -5.123365   -1.238172    0.001268
 C         -5.522997   -3.616910   -0.011911
 C         -4.543918   -2.552304   -0.002495
 N         -7.564185   -4.548257   -0.015482
 N         -5.335053   -4.947582   -0.012337
 N         -6.573885   -5.440436   -0.005781
 C         -6.829324   -6.867109   -0.094114
 H         -6.014924   -7.392745    0.404819
 H         -7.777178   -7.076827    0.401930
 H         -6.884114   -7.182305   -1.141205
 C         -3.156516   -2.773012    0.000826
 C         -2.451792   -4.004818   -0.002277
 S         -1.990895   -1.428220    0.009414
 C         -1.074317   -3.870864    0.001576
 H         -2.974982   -4.951538   -0.007119
 C         -0.614831   -2.539271    0.007835
 H         -0.393339   -4.715701   -0.000303
 C          0.718989   -2.067760    0.011706
 C          1.170998   -0.753600    0.016159
 S          2.084643   -3.209402    0.009939
 C          2.583161   -0.615196    0.017835
 H          0.490251    0.090248    0.017629
 C          3.254091   -1.881627    0.015106
 C          3.327959    0.592348    0.021291
 C          4.634195   -2.018582    0.016018
 C          4.709701    0.452895    0.021205
 C          5.377435   -0.811254    0.018714
 S          5.881729    1.776264    0.023462
 C          6.796340   -0.668600    0.018647
 C          7.238517    0.634133    0.020742
 H          7.476573   -1.513165    0.016609
 C          8.591253    1.124604    0.019797
 C          9.039014    2.434118    0.022113
 S          9.959397    0.021088    0.012676
 C         10.445377    2.559956    0.018630
 H          8.366844    3.285766    0.026466
 C         11.117492    1.349563    0.014260
 H         10.967158    3.507723    0.019516
 C         12.547657    1.098602    0.011244
 C         13.099390   -0.182023    0.039302
 C         13.518252    2.149728   -0.019543
 C         14.485804   -0.436240    0.035117
 C         14.921742    1.890934   -0.023760
 N         13.339650    3.489339   -0.056529
 C         15.455700    0.564255    0.002732
 N         15.565381    3.079992   -0.062943
 N         14.577600    3.962928   -0.084483
 C         16.886061    0.289583   -0.001860
 C         14.840476    5.394663   -0.063594
 C         17.942413    1.179283   -0.025123
 S         17.499787   -1.363091    0.024431
 H         15.795119    5.572457   -0.557692
 H         14.032562    5.898597   -0.593539
 H         14.884907    5.750906    0.969636
 C         19.219762    0.551809   -0.021632
 H         17.792978    2.250770   -0.044061
 C         19.143960   -0.814058    0.004062
 H         20.157207    1.097167   -0.037587
 H         19.951037   -1.534435    0.012113
 C          2.629268    1.927886    0.024042
 H          1.984934    2.036411    0.905216
 H          3.338708    2.759790    0.029749
 H          1.990992    2.043278   -0.860704
 C          5.334446   -3.354110    0.012718
 H          4.625539   -4.186420    0.024330
 H          5.964980   -3.469323   -0.877523
 H          5.985741   -3.462646    0.888587
 C        -12.688372    4.682564    0.008863
 H        -11.857945    4.386640    0.658205
 H        -12.280186    4.827150   -1.000210
 H        -13.048704    5.654398    0.359888
 C        -16.998458    0.605568   -0.006203
 H        -16.668503   -0.317101   -0.495538
 H        -17.298001    0.344414    1.017484
 H        -17.892092    0.953231   -0.532415
 H         14.797628   -1.476386    0.059778
 H         12.438876   -1.043905    0.068060
 H         -4.456890   -0.380699    0.005757
 H         -6.805937    0.037724    0.002842
       104
S1: Total Energy = -5593.40071716
 C        -15.118806    4.007277    0.011350
 C        -13.769982    3.659581    0.001364
 C        -13.488937    2.273250    0.009997
 C        -14.554886    1.321121    0.030087
 C        -15.901312    1.668677    0.036060
 C        -16.182665    3.053891    0.031119
 C        -17.472330    3.695080    0.048838
 H        -18.412592    3.156499    0.075632
 C        -17.401821    5.051478    0.035581
 S        -15.760410    5.656476    0.000836
 C        -12.245785    0.266582    0.010390
 S        -13.921000   -0.328503    0.048631
 C        -12.207802    1.645274   -0.005663
 H        -11.275544    2.198404   -0.032360
 H        -18.223611    5.755735    0.044127
 C        -11.155776   -0.658602    0.003869
 C        -11.194723   -2.050970    0.006946
 S         -9.483341   -0.106068   -0.007016
 C         -9.935166   -2.663737    0.000281
 H        -12.126148   -2.607786    0.013123
 C         -8.863860   -1.765103   -0.008485
 H         -9.779960   -3.734346    0.001378
 C         -7.459737   -2.036755   -0.016097
 C         -6.476568   -1.019607   -0.027910
 C         -6.919529   -3.367446   -0.012697
 C         -5.108129   -1.265624   -0.031268
 C         -5.514843   -3.622491   -0.015949
 C         -4.541394   -2.563655   -0.023117
 N         -7.560697   -4.554354    0.001447
 N         -5.330727   -4.957575   -0.003630
 N         -6.570420   -5.442631    0.013272
 C         -6.828775   -6.870752   -0.051072
 H         -6.011149   -7.389781    0.449264
 H         -7.773862   -7.070888    0.453886
 H         -6.891010   -7.199409   -1.093436
 C         -3.135955   -2.798027   -0.022301
 C         -2.445555   -4.022675   -0.014627
 S         -1.974779   -1.461411   -0.029253
 C         -1.059183   -3.895725   -0.013842
 H         -2.971077   -4.968149   -0.009483
 C         -0.598715   -2.570630   -0.021153
 H         -0.383319   -4.744673   -0.008270
 C          0.733235   -2.096704   -0.021264
 C          1.183944   -0.776079   -0.032016
 S          2.100354   -3.231701   -0.004691
 C          2.585392   -0.633151   -0.027314
 H          0.498552    0.063846   -0.043191
 C          3.266779   -1.899660   -0.011971
 C          3.329848    0.584367   -0.035976
 C          4.641752   -2.029905   -0.003737
 C          4.705586    0.452770   -0.027775
 C          5.385149   -0.812668   -0.011486
 S          5.872811    1.783732   -0.035032
 C          6.789122   -0.667643   -0.005304
 C          7.236288    0.648588   -0.016432
 H          7.474121   -1.508123    0.006469
 C          8.575420    1.126466   -0.014664
 C          9.032349    2.445316   -0.030928
 S          9.947420    0.018851    0.009431
 C         10.427121    2.568141   -0.024734
 H          8.359685    3.296377   -0.047354
 C         11.106679    1.349542   -0.002806
 H         10.952631    3.513756   -0.035661
 C         12.525254    1.107081    0.009512
 C         13.083670   -0.179711    0.041969
 C         13.497362    2.161622   -0.008813
 C         14.463912   -0.429094    0.052901
 C         14.901161    1.903747    0.002153
 N         13.317488    3.499145   -0.044877
 C         15.437159    0.577144    0.032438
 N         15.544280    3.092630   -0.027280
 N         14.556231    3.976536   -0.058737
 C         16.861834    0.303558    0.042716
 C         14.816755    5.407765   -0.028549
 C         17.921353    1.194385    0.026514
 S         17.477260   -1.350602    0.080677
 H         15.776245    5.589382   -0.511982
 H         14.014102    5.913421   -0.565015
 H         14.850177    5.761020    1.006362
 C         19.196335    0.567040    0.044275
 H         17.771697    2.265686    0.002580
 C         19.120744   -0.800129    0.073925
 H         20.134308    1.111698    0.035349
 H         19.928580   -1.519478    0.092123
 C          2.619271    1.912091   -0.052904
 H          1.972632    2.025845    0.826107
 H          3.320276    2.751016   -0.058906
 H          1.979923    2.007118   -0.939427
 C          5.352370   -3.358330    0.012860
 H          4.650724   -4.196641    0.015298
 H          6.000884   -3.470989   -0.864702
 H          5.988492   -3.455491    0.901298
 C        -12.658294    4.677398   -0.031260
 H        -11.898630    4.459990    0.728403
 H        -12.151455    4.683802   -1.005062
 H        -13.028550    5.689607    0.154405
 C        -16.999098    0.634618    0.072767
 H        -16.670012   -0.312336   -0.367687
 H        -17.318320    0.424348    1.102206
 H        -17.881138    0.965286   -0.483848
 H         14.779670   -1.468036    0.078807
 H         12.423095   -1.041774    0.060594
 H         -4.444817   -0.405407   -0.040115
 H         -6.798038    0.017977   -0.034396
