       119
S0: Total Energy = -4735.01148549
 N         15.355196   -1.240442    0.000724
 C         16.697857   -1.744935    0.000841
 C         17.514630   -0.552947    0.000637
 C         18.838931   -0.122162    0.000458
 N         18.826021    1.267713    0.000163
 C         17.482938    1.773409    0.000090
 C         16.665504    0.582349    0.000415
 C         15.340392    0.151465    0.000482
 O         16.965410   -2.946165    0.001097
 O         17.215867    2.974997   -0.000164
 C         14.178981    0.976583    0.000276
 C         14.062427    2.356375    0.000062
 C         12.682495    2.645331   -0.000100
 C         12.015640    1.433289    0.000035
 H         14.897361    3.044460   -0.000042
 H         12.223247    3.624187   -0.000276
 C         20.005722   -0.948253    0.000572
 C         20.127299   -2.323124    0.000861
 C         21.520934   -2.603456    0.000839
 C         22.157232   -1.394006    0.000536
 H         19.296865   -3.016339    0.001078
 H         21.992669   -3.575873    0.001024
 C         10.631901    1.064044   -0.000013
 C         10.087484   -0.209137    0.000268
 C          8.676976   -0.216204    0.000114
 C          8.119782    1.051510   -0.000288
 S          9.369869    2.282210   -0.000460
 H         10.698153   -1.104013    0.000573
 C         14.219848   -2.150205    0.001073
 H         13.601367   -2.009896    0.891755
 H         13.601134   -2.010271   -0.889503
 H         14.636536   -3.158494    0.001236
 C         19.962705    2.176953   -0.000122
 H         20.581382    2.034967   -0.889991
 H         20.581503    2.035365    0.889726
 H         19.547022    3.185568   -0.000322
 H         23.195487   -1.098662    0.000416
 C          6.732715    1.406796   -0.000526
 C          6.053765    2.612573   -0.000723
 C          4.677222    2.310452   -0.000893
 H          6.503470    3.595840   -0.000755
 C          4.573723    0.928986   -0.000757
 H          3.835543    2.990294   -0.001026
 C          3.421213    0.093571   -0.000817
 C          2.090411    0.512050   -0.000906
 N          3.418621   -1.298198   -0.000768
 C          1.262382    1.696692   -0.000860
 C          1.253344   -0.629512   -0.000885
 C          2.081260   -1.814117   -0.000838
 C          4.562244   -2.197770   -0.000786
 N         -0.074967    1.180760   -0.000751
 O          1.520591    2.900290   -0.000856
 C         -0.077550   -0.210989   -0.000770
 O          1.823125   -3.017788   -0.000808
 H          5.179481   -2.051600    0.889762
 H          5.179280   -2.051836   -0.891521
 H          4.155003   -3.209871   -0.000619
 C         -1.218727    2.080173   -0.000722
 C         -1.229762   -1.046579   -0.000678
 H         -1.835767    1.934111   -0.891433
 H         -1.835900    1.933866    0.889846
 H         -0.811695    3.092356   -0.000567
 C         -1.332409   -2.428166   -0.000774
 C         -2.708611   -2.731197   -0.000593
 H         -0.490235   -3.107411   -0.000893
 C         -3.388466   -1.525794   -0.000434
 H         -3.157665   -3.714757   -0.000598
 C         -4.775854   -1.172325   -0.000204
 C         -5.335423    0.094397    0.000264
 S         -6.023889   -2.405285   -0.000483
 C         -6.745858    0.084905    0.000373
 H         -4.735434    0.996487    0.000517
 C         -7.288186   -1.189351   -0.000008
 H          8.075371   -1.117198    0.000284
 H         -7.358106    0.978696    0.000719
 C         -8.670813   -1.561601   -0.000035
 C         -9.334617   -2.775426   -0.000234
 C        -10.715118   -2.490418   -0.000134
 H         -8.872656   -3.753027   -0.000419
 C        -10.835651   -1.110604    0.000122
 H        -11.548177   -3.180737   -0.000255
 C        -11.998992   -0.289068    0.000294
 C        -13.323808   -0.723656    0.000210
 N        -12.018969    1.102736    0.000520
 C        -14.137438   -1.918109   -0.000030
 C        -14.175422    0.408010    0.000397
 C        -13.363061    1.602312    0.000602
 C        -10.886832    2.016406    0.000796
 N        -15.481252   -1.418493    0.000066
 O        -13.864943   -3.118542   -0.000239
 C        -15.500945   -0.027103    0.000299
 O        -13.635444    2.803150    0.000835
 H        -10.267684    1.878605   -0.889833
 H        -10.267733    1.878125    0.891381
 H        -11.306942    3.023281    0.001053
 C        -16.613810   -2.332025   -0.000152
 C        -16.664684    0.793100    0.000427
 H        -17.232843   -2.193425    0.890316
 H        -17.232769   -2.193100   -0.890620
 H        -16.194270   -3.339101   -0.000319
 C        -16.788040    2.171661    0.000690
 C        -18.170634    2.453691    0.000709
 H        -15.956462    2.863845    0.000851
 C        -18.830516    1.239431    0.000456
 H        -18.635318    3.429871    0.000894
 C        -20.217368    0.862602    0.000371
 C        -20.754950   -0.409159    0.000255
 S        -21.487793    2.071463    0.000417
 C        -22.176928   -0.414231    0.000206
 H        -20.142690   -1.303176    0.000213
 C        -22.715132    0.844958    0.000284
 H        -22.775832   -1.318160    0.000120
 H        -23.757992    1.131970    0.000271
 O        -17.917113    0.222676    0.000271
 O         -9.583809   -0.542035    0.000197
 O         -2.489262   -0.494480   -0.000478
 O          5.832766    0.376111   -0.000552
 O         12.925631    0.411417    0.000287
 O         21.256887   -0.376179    0.000350
       119
T1: Total Energy = -4734.98138593
 N         15.374325    1.253980   -0.000322
 C         16.717966    1.750683   -0.000267
 C         17.529703    0.554091   -0.000123
 C         18.854013    0.118043    0.000014
 N         18.834115   -1.271457    0.000141
 C         17.489076   -1.770629    0.000089
 C         16.676914   -0.575909   -0.000083
 C         15.350629   -0.138876   -0.000201
 O         16.993215    2.950351   -0.000364
 O         17.216191   -2.971450    0.000173
 C         14.189083   -0.956292   -0.000194
 C         14.068117   -2.339490   -0.000092
 C         12.692273   -2.625576   -0.000121
 C         12.022633   -1.409641   -0.000233
 H         14.902475   -3.028418   -0.000002
 H         12.231152   -3.603595   -0.000058
 C         20.023452    0.939033    0.000034
 C         20.151105    2.313808   -0.000088
 C         21.545804    2.588045    0.000005
 C         22.177161    1.375944    0.000176
 H         19.323587    3.010480   -0.000225
 H         22.021707    3.558447   -0.000048
 C         10.645935   -1.045145   -0.000289
 C         10.098688    0.234328   -0.000385
 C          8.696924    0.246685   -0.000385
 C          8.128052   -1.026937   -0.000287
 S          9.379851   -2.264207   -0.000216
 H         10.713194    1.126672   -0.000442
 C         14.243561    2.169265   -0.000483
 H         13.624278    2.031953   -0.891108
 H         13.624152    2.032108    0.890079
 H         14.664895    3.175625   -0.000540
 C         19.966435   -2.186060    0.000301
 H         20.585792   -2.046969    0.890162
 H         20.585918   -2.047122   -0.889497
 H         19.546097   -3.192741    0.000359
 H         23.214154    1.076226    0.000293
 C          6.753760   -1.366541   -0.000229
 C          6.061100   -2.579111   -0.000139
 C          4.699477   -2.283036   -0.000077
 H          6.512597   -3.561873   -0.000111
 C          4.586854   -0.882603   -0.000133
 H          3.857523   -2.962441    0.000008
 C          3.449855   -0.070113   -0.000070
 C          2.088161   -0.503141    0.000069
 N          3.410759    1.322370   -0.000127
 C          1.268578   -1.707148    0.000169
 C          1.257639    0.605842    0.000088
 C          2.077297    1.809339   -0.000024
 C          4.540287    2.240357   -0.000264
 N         -0.064362   -1.220834    0.000238
 O          1.560712   -2.904530    0.000180
 C         -0.104541    0.172406    0.000187
 O          1.786400    3.007109   -0.000058
 H          5.158607    2.100147   -0.890862
 H          5.158764    2.100218    0.890236
 H          4.120734    3.247138   -0.000267
 C         -1.193873   -2.138767    0.000349
 C         -1.240326    0.984008    0.000230
 H         -1.812248   -1.998557    0.890929
 H         -1.812371   -1.998623   -0.890155
 H         -0.774452   -3.145614    0.000358
 C         -1.351565    2.386161    0.000195
 C         -2.711034    2.683944    0.000263
 H         -0.508444    3.064146    0.000130
 C         -3.407253    1.471434    0.000323
 H         -3.161194    3.667345    0.000258
 C         -4.780188    1.136764    0.000381
 C         -5.353894   -0.136754    0.000403
 S         -6.029545    2.377895    0.000398
 C         -6.753708   -0.120897    0.000421
 H         -4.755993   -1.040088    0.000394
 C         -7.299343    1.161310    0.000418
 H          8.096977    1.148650   -0.000442
 H         -7.370687   -1.011538    0.000431
 C         -8.672830    1.527714    0.000407
 C         -9.339957    2.746929    0.000409
 C        -10.714933    2.466283    0.000367
 H         -8.875179    3.723257    0.000434
 C        -10.841849    1.081667    0.000333
 H        -11.546974    3.158015    0.000349
 C        -12.005169    0.271071    0.000256
 C        -13.331941    0.714542    0.000189
 N        -12.037996   -1.121900    0.000223
 C        -14.138031    1.914600    0.000170
 C        -14.188530   -0.409013    0.000111
 C        -13.383357   -1.610143    0.000144
 C        -10.912486   -2.043566    0.000260
 N        -15.484373    1.424698    0.000055
 O        -13.856596    3.113631    0.000209
 C        -15.514486    0.033819    0.000024
 O        -13.667105   -2.808520    0.000089
 H        -10.292410   -1.909649    0.890870
 H        -10.292316   -1.909609   -0.890278
 H        -11.339252   -3.047630    0.000215
 C        -16.610550    2.346049   -0.000010
 C        -16.681436   -0.778740   -0.000082
 H        -17.230405    2.211306   -0.890502
 H        -17.230543    2.211263    0.890380
 H        -16.184291    3.350283    0.000047
 C        -16.813444   -2.157665   -0.000110
 C        -18.197008   -2.431144   -0.000224
 H        -15.985914   -2.854652   -0.000052
 C        -18.850383   -1.212852   -0.000261
 H        -18.667558   -3.404538   -0.000275
 C        -20.234478   -0.828364   -0.000369
 C        -20.764891    0.446735   -0.000414
 S        -21.512156   -2.029892   -0.000467
 C        -22.186660    0.459974   -0.000521
 H        -20.147409    1.337141   -0.000370
 C        -22.732302   -0.796098   -0.000556
 H        -22.780339    1.367352   -0.000568
 H        -23.776835   -1.076949   -0.000632
 O        -17.930764   -0.201136   -0.000173
 O         -9.591165    0.509525    0.000367
 O         -2.503875    0.433976    0.000306
 O          5.849562   -0.330791   -0.000236
 O         12.936533   -0.388612   -0.000284
 O         21.272398    0.361745    0.000192
       119
S1: Total Energy = -4734.96079700
 N         15.367333    1.258562   -0.000122
 C         16.710362    1.750353   -0.000180
 C         17.520293    0.550979   -0.000228
 C         18.847443    0.113829   -0.000271
 N         18.823416   -1.275225   -0.000269
 C         17.477521   -1.771435   -0.000207
 C         16.667626   -0.575230   -0.000193
 C         15.337304   -0.135451   -0.000129
 O         16.990751    2.949126   -0.000194
 O         17.202393   -2.972556   -0.000199
 C         14.178641   -0.947165   -0.000078
 C         14.056224   -2.334950   -0.000075
 C         12.685618   -2.621355   -0.000008
 C         12.009873   -1.403048    0.000021
 H         14.891815   -3.022546   -0.000116
 H         12.224941   -3.599668    0.000012
 C         20.015826    0.932784   -0.000314
 C         20.146113    2.308741   -0.000326
 C         21.540594    2.580577   -0.000372
 C         22.170954    1.367501   -0.000381
 H         19.319495    3.006446   -0.000304
 H         22.017979    3.550314   -0.000394
 C         10.638329   -1.045870    0.000080
 C         10.085044    0.236187    0.000094
 C          8.687505    0.245581    0.000143
 C          8.117901   -1.031135    0.000169
 S          9.372092   -2.267904    0.000158
 H         10.698435    1.129269    0.000059
 C         14.239112    2.176748   -0.000081
 H         13.619260    2.040846   -0.890572
 H         13.619321    2.040841    0.890450
 H         14.662608    3.182200   -0.000093
 C         19.953412   -2.192414   -0.000327
 H         20.573348   -2.054707    0.889410
 H         20.573265   -2.054698   -0.890121
 H         19.530813   -3.198163   -0.000312
 H         23.207626    1.066649   -0.000411
 C          6.745998   -1.370631    0.000207
 C          6.054455   -2.584260    0.000247
 C          4.691460   -2.286917    0.000272
 H          6.506320   -3.566779    0.000253
 C          4.579618   -0.891442    0.000248
 H          3.848518   -2.965607    0.000302
 C          3.435076   -0.075745    0.000254
 C          2.090189   -0.506764    0.000292
 N          3.406714    1.318102    0.000218
 C          1.273214   -1.704569    0.000308
 C          1.251345    0.614825    0.000273
 C          2.069308    1.812722    0.000237
 C          4.538970    2.231629    0.000189
 N         -0.064249   -1.210135    0.000283
 O          1.553398   -2.904743    0.000318
 C         -0.093077    0.184076    0.000263
 O          1.789326    3.012632    0.000204
 H          5.157832    2.091579   -0.890289
 H          5.157836    2.091632    0.890672
 H          4.121200    3.239362    0.000161
 C         -1.196177   -2.123786    0.000298
 C         -1.237420    1.000449    0.000243
 H         -1.815167   -1.984213    0.890834
 H         -1.815179   -1.984225   -0.890231
 H         -0.777940   -3.131353    0.000303
 C         -1.347516    2.396834    0.000226
 C         -2.709259    2.695567    0.000206
 H         -0.503745    3.074398    0.000225
 C         -3.403331    1.482348    0.000210
 H         -3.159825    3.678732    0.000187
 C         -4.773654    1.145573    0.000190
 C         -5.345004   -0.133076    0.000189
 S         -6.026338    2.383738    0.000170
 C         -6.740056   -0.122937    0.000163
 H         -4.742662   -1.033441    0.000204
 C         -7.294262    1.161456    0.000138
 H          8.085437    1.146233    0.000150
 H         -7.354305   -1.015450    0.000153
 C         -8.662081    1.517179    0.000097
 C         -9.337338    2.739708    0.000067
 C        -10.705018    2.457612    0.000026
 H         -8.873567    3.716522    0.000072
 C        -10.832627    1.066570    0.000037
 H        -11.538930    3.147303   -0.000006
 C        -11.990424    0.262296    0.000009
 C        -13.323836    0.709868   -0.000039
 N        -12.031094   -1.130593    0.000023
 C        -14.127308    1.913666   -0.000077
 C        -14.178950   -0.406222   -0.000054
 C        -13.376035   -1.612218   -0.000010
 C        -10.908508   -2.056411    0.000064
 N        -15.474730    1.428642   -0.000120
 O        -13.841094    3.111200   -0.000084
 C        -15.510918    0.039250   -0.000103
 O        -13.667459   -2.808075   -0.000009
 H        -10.288456   -1.923645    0.890754
 H        -10.288398   -1.923653   -0.890588
 H        -11.337786   -3.059303    0.000054
 C        -16.598049    2.353910   -0.000168
 C        -16.672914   -0.770433   -0.000131
 H        -17.217945    2.220432   -0.890769
 H        -17.218010    2.220444    0.890390
 H        -16.169086    3.356918   -0.000159
 C        -16.805238   -2.153716   -0.000112
 C        -18.184597   -2.427583   -0.000157
 H        -15.976702   -2.849603   -0.000071
 C        -18.842114   -1.207801   -0.000200
 H        -18.654671   -3.401255   -0.000159
 C        -20.224019   -0.829178   -0.000259
 C        -20.758927    0.446285   -0.000338
 S        -21.499367   -2.034729   -0.000237
 C        -22.179034    0.454941   -0.000384
 H        -20.143719    1.338194   -0.000364
 C        -22.721266   -0.803841   -0.000341
 H        -22.776028    1.360080   -0.000448
 H        -23.765252   -1.086827   -0.000362
 O        -17.923756   -0.194809   -0.000185
 O         -9.579646    0.496683    0.000081
 O         -2.497945    0.447775    0.000235
 O          5.840684   -0.337669    0.000211
 O         12.924742   -0.380360   -0.000017
 O         21.264753    0.354151   -0.000351
