       104
S0: Total Energy = -5990.38510898
 C         15.690700    3.795258    0.049398
 C         14.323214    3.521474    0.084347
 C         13.967227    2.157641    0.020683
 C         14.978655    1.155697   -0.078426
 C         16.344429    1.428796   -0.113311
 C         16.701465    2.792464   -0.049938
 C         18.023037    3.372042   -0.077085
 H         18.935041    2.792466   -0.160169
 C         18.019702    4.726208    0.005615
 S         16.410958    5.407353    0.122909
 C         12.627507    0.216815   -0.028639
 S         14.264624   -0.456989   -0.154048
 C         12.652050    1.583839    0.052265
 H         11.747898    2.175050    0.144272
 H         18.874813    5.389665    0.006465
 C         11.485130   -0.667836   -0.024423
 C         11.466685   -2.050187   -0.027683
 S          9.851050   -0.035802   -0.015131
 C         10.168038   -2.603014   -0.019432
 H         12.367656   -2.654360   -0.030488
 C          9.155427   -1.657464   -0.009692
 H          9.965589   -3.665289   -0.018477
 C          7.724590   -1.899614    0.001673
 C          6.760414   -0.901801    0.015683
 C          7.142365   -3.211879    0.001598
 C          5.365876   -1.128127    0.026454
 C          5.733860   -3.440465    0.012380
 C          4.766653   -2.379685    0.024167
 F          7.129083    0.396430    0.019876
 F          4.605620   -0.013148    0.039627
 N          7.759013   -4.412470   -0.015889
 N          5.528196   -4.774414    0.001120
 N          6.754292   -5.276193   -0.019667
 C          6.987751   -6.712902    0.029045
 H          6.156135   -7.210054   -0.469304
 H          7.925428   -6.923149   -0.484430
 H          7.050513   -7.045198    1.069114
 C          3.332733   -2.602464    0.034204
 C          2.670947   -3.819959    0.039686
 S          2.160405   -1.283982    0.041694
 C          1.264371   -3.706175    0.045027
 H          3.198946   -4.763711    0.036786
 C          0.809779   -2.400230    0.043370
 H          0.600603   -4.564198    0.043085
 C         -0.552698   -1.921703    0.044265
 C         -1.007528   -0.632524   -0.056319
 S         -1.893319   -3.073992    0.193536
 C         -2.434350   -0.502530   -0.022338
 H         -0.336959    0.212302   -0.166221
 C         -3.080137   -1.770173    0.098217
 C         -3.199159    0.682591   -0.102706
 C         -4.462052   -1.936677    0.137793
 C         -4.581043    0.516089   -0.063034
 C         -5.226842   -0.751629    0.057115
 S         -5.768010    1.819825   -0.158379
 C         -6.653775   -0.621563    0.091875
 C         -7.108430    0.667620   -0.007768
 H         -7.324479   -1.465972    0.203998
 C         -8.471020    1.146545   -0.005133
 C         -8.925699    2.451730    0.026301
 S         -9.821445    0.030747   -0.046783
 C        -10.332762    2.565191    0.024350
 H         -8.262075    3.309256    0.059278
 C        -10.993869    1.348274   -0.009595
 H        -10.861157    3.508361    0.050821
 C        -12.428657    1.124686   -0.015846
 C        -13.027091   -0.125425   -0.060123
 C        -13.396141    2.184194    0.021824
 C        -14.422908   -0.352394   -0.064955
 F        -12.266843   -1.239753   -0.102480
 C        -14.804742    1.954249    0.017063
 N        -13.191343    3.517316    0.074597
 C        -15.386400    0.643248   -0.026216
 F        -14.789172   -1.650518   -0.111378
 N        -15.422289    3.154015    0.066944
 N        -14.418172    4.017389    0.102923
 C        -16.821089    0.399552   -0.030170
 C        -14.651887    5.454800    0.095992
 C        -17.833335    1.342359    0.006276
 S        -17.518563   -1.220804   -0.084311
 H        -15.597002    5.648345    0.602284
 H        -13.827949    5.936586    0.621527
 H        -14.699944    5.819711   -0.933886
 C        -19.138060    0.781064   -0.008705
 H        -17.631848    2.404301    0.042733
 C        -19.127334   -0.587346   -0.056478
 H        -20.046249    1.373299    0.015134
 H        -19.970815   -1.264901   -0.077221
 C         -2.557471    2.039424   -0.249510
 H         -2.386560    2.289919   -1.304895
 H         -3.189588    2.826423    0.175259
 H         -1.590838    2.085668    0.260418
 C         -5.103567   -3.293569    0.284858
 H         -4.472351   -4.080298   -0.141795
 H         -5.272356   -3.544879    1.340397
 H         -6.071196   -3.339370   -0.223170
 C         13.296122    4.618412    0.210333
 H         12.333360    4.324941   -0.216417
 H         13.124710    4.887290    1.261209
 H         13.621987    5.526501   -0.308890
 C         17.367257    0.327180   -0.237109
 H         17.066486   -0.556715    0.337168
 H         17.489349    0.010251   -1.281447
 H         18.347979    0.638818    0.130747
       104
T1: Total Energy = -5990.33561649
 C         15.685552    3.764116   -0.026221
 C         14.318224    3.495115   -0.024117
 C         13.958895    2.127604   -0.022877
 C         14.968761    1.116086   -0.028896
 C         16.333347    1.385250   -0.029540
 C         16.693138    2.751884   -0.032365
 C         18.017488    3.319732   -0.046691
 H         18.926410    2.729748   -0.064957
 C         18.022321    4.677639   -0.042195
 S         16.417424    5.374075   -0.020334
 C         12.605743    0.191495   -0.013202
 S         14.245624   -0.496293   -0.038295
 C         12.644133    1.571825   -0.008199
 H         11.743676    2.175293    0.011001
 H         18.882368    5.334628   -0.049942
 C         11.464384   -0.664129   -0.004251
 C         11.425411   -2.062453   -0.001333
 S          9.828939   -0.008899    0.002708
 C         10.142055   -2.599439    0.006012
 H         12.323338   -2.671605   -0.004097
 C          9.110833   -1.634002    0.009607
 H          9.925900   -3.658624    0.008900
 C          7.717038   -1.873717    0.016372
 C          6.726074   -0.850130    0.022263
 C          7.122894   -3.193966    0.019152
 C          5.365453   -1.065274    0.025775
 C          5.714849   -3.419275    0.022473
 C          4.737998   -2.347969    0.023622
 F          7.126676    0.441261    0.024424
 F          4.584625    0.038324    0.031120
 N          7.737003   -4.389274    0.009993
 N          5.503995   -4.745655    0.015296
 N          6.731437   -5.261856   -0.000210
 C          6.960285   -6.694518    0.076659
 H          6.131379   -7.200294   -0.418580
 H          7.899285   -6.918707   -0.429547
 H          7.018105   -7.016346    1.121299
 C          3.345634   -2.549490    0.023404
 C          2.662457   -3.796862    0.020399
 S          2.154669   -1.227954    0.025486
 C          1.284469   -3.690625    0.019246
 H          3.202192   -4.733529    0.018689
 C          0.801974   -2.366915    0.021637
 H          0.621753   -4.549767    0.016842
 C         -0.538587   -1.920960    0.020978
 C         -1.011864   -0.611410    0.025771
 S         -1.886696   -3.082759    0.012831
 C         -2.423777   -0.495212    0.023249
 H         -0.344038    0.242583    0.031004
 C         -3.076241   -1.772348    0.015308
 C         -3.186703    0.702424    0.027612
 C         -4.453120   -1.929840    0.010331
 C         -4.565565    0.542140    0.022705
 C         -5.214614   -0.732307    0.013969
 S         -5.756901    1.847797    0.025590
 C         -6.634051   -0.611333    0.011387
 C         -7.095922    0.685877    0.017445
 H         -7.301449   -1.466027    0.007240
 C         -8.456216    1.154668    0.018139
 C         -8.919181    2.460066    0.045732
 S         -9.803131    0.031709   -0.018919
 C        -10.324084    2.566360    0.039357
 H         -8.259941    3.321186    0.071730
 C        -10.980754    1.344759    0.006105
 H        -10.857557    3.506809    0.059301
 C        -12.413076    1.116808   -0.006465
 C        -13.007365   -0.136424   -0.048639
 C        -13.384718    2.173286    0.021980
 C        -14.401546   -0.368236   -0.059823
 F        -12.242251   -1.247577   -0.082198
 C        -14.792312    1.937968    0.010938
 N        -13.185144    3.507159    0.070235
 C        -15.369117    0.624602   -0.030052
 F        -14.763445   -1.667663   -0.102854
 N        -15.414561    3.135543    0.052644
 N        -14.414018    4.002945    0.090212
 C        -16.802340    0.375789   -0.040385
 C        -14.652913    5.439461    0.076242
 C        -17.818273    1.315338   -0.012441
 S        -17.494023   -1.247271   -0.092305
 H        -15.605650    5.630393    0.568977
 H        -13.838248    5.926047    0.611794
 H        -14.688183    5.801521   -0.955158
 C        -19.120713    0.749475   -0.032072
 H        -17.620706    2.378100    0.021264
 C        -19.104914   -0.619181   -0.074937
 H        -20.031111    1.338518   -0.014950
 H        -19.945978   -1.299678   -0.097542
 C         -2.507517    2.047660    0.036040
 H         -1.875713    2.178145   -0.851209
 H         -3.228899    2.869063    0.051466
 H         -1.860003    2.159006    0.914385
 C         -5.134298   -3.274964    0.002315
 H         -4.413567   -4.097019   -0.009090
 H         -5.768692   -3.403432    0.887879
 H         -5.778574   -3.387791   -0.878127
 C         13.274387    4.582765   -0.000787
 H         12.430173    4.340421   -0.654578
 H         12.873408    4.730614    1.010606
 H         13.683953    5.540632   -0.335469
 C         17.366540    0.286400   -0.053029
 H         16.996037   -0.618210    0.441024
 H         17.635797    0.011116   -1.081395
 H         18.285325    0.585880    0.459170
       104
S1: Total Energy = -5990.31629180
 C         15.645910    3.799625   -0.028744
 C         14.281728    3.518988   -0.008397
 C         13.932991    2.147976   -0.021620
 C         14.950342    1.144511   -0.056402
 C         16.312216    1.425204   -0.072878
 C         16.661246    2.794995   -0.063251
 C         17.980666    3.371876   -0.089445
 H         18.892977    2.787930   -0.127771
 C         17.977016    4.730151   -0.068280
 S         16.368088    5.415132   -0.015307
 C         12.592413    0.205300   -0.021705
 S         14.235456   -0.471498   -0.077966
 C         12.622559    1.584060    0.002228
 H         11.719379    2.182883    0.040184
 H         18.832516    5.392990   -0.080635
 C         11.456219   -0.664156   -0.011351
 C         11.428385   -2.056554   -0.022988
 S          9.818025   -0.025860    0.016595
 C         10.140807   -2.604410   -0.010238
 H         12.329349   -2.661119   -0.039792
 C          9.114276   -1.652037    0.012038
 H          9.933838   -3.665586   -0.016871
 C          7.704559   -1.895355    0.026067
 C          6.723196   -0.885993    0.049711
 C          7.120607   -3.211901    0.017061
 C          5.349446   -1.109159    0.057474
 C          5.710860   -3.443058    0.025010
 C          4.737667   -2.378905    0.042812
 F          7.107221    0.411145    0.065105
 F          4.573182   -0.001643    0.079584
 N          7.739184   -4.408651   -0.008504
 N          5.505350   -4.773284    0.004049
 N          6.735188   -5.280560   -0.022295
 C          6.969477   -6.713656    0.032535
 H          6.138881   -7.215217   -0.464037
 H          7.906408   -6.927158   -0.481936
 H          7.034727   -7.048603    1.072556
 C          3.327983   -2.593717    0.044067
 C          2.656953   -3.831409    0.029568
 S          2.144485   -1.276884    0.060146
 C          1.269816   -3.727734    0.029776
 H          3.196602   -4.768156    0.018412
 C          0.790980   -2.409999    0.044911
 H          0.609738   -4.588897    0.019027
 C         -0.549242   -1.957715    0.046137
 C         -1.017942   -0.642549    0.063559
 S         -1.899018   -3.110882    0.020231
 C         -2.420460   -0.519529    0.056007
 H         -0.344372    0.206672    0.080885
 C         -3.084071   -1.795391    0.031430
 C         -3.181197    0.688753    0.069243
 C         -4.456654   -1.944719    0.017712
 C         -4.554548    0.538069    0.055264
 C         -5.216450   -0.736663    0.029346
 S         -5.739768    1.852633    0.065141
 C         -6.621548   -0.611246    0.018397
 C         -7.086174    0.699716    0.034853
 H         -7.294895   -1.460872   -0.000525
 C         -8.433029    1.157935    0.029917
 C         -8.904197    2.471722    0.053813
 S         -9.784692    0.031053   -0.010466
 C        -10.298620    2.575761    0.041460
 H         -8.244460    3.332455    0.080411
 C        -10.962303    1.346360    0.006861
 H        -10.835380    3.514350    0.057318
 C        -12.384769    1.127024   -0.012030
 C        -12.987503   -0.131049   -0.052373
 C        -13.355970    2.187909    0.006960
 C        -14.375376   -0.357015   -0.069297
 F        -12.220355   -1.241724   -0.077700
 C        -14.764383    1.955038   -0.009937
 N        -13.153514    3.519979    0.050110
 C        -15.344854    0.642503   -0.047941
 F        -14.746030   -1.654797   -0.108770
 N        -15.384350    3.153593    0.023243
 N        -14.382255    4.020729    0.062490
 C        -16.773726    0.397469   -0.063479
 C        -14.617485    5.456915    0.037353
 C        -17.790273    1.340592   -0.042551
 S        -17.471422   -1.225375   -0.113387
 H        -15.569142    5.654665    0.529773
 H        -13.801288    5.945906    0.568535
 H        -14.653293    5.812603   -0.996487
 C        -19.092237    0.777923   -0.065904
 H        -17.589911    2.402831   -0.011236
 C        -19.080418   -0.591956   -0.104661
 H        -20.001496    1.368945   -0.054348
 H        -19.923778   -1.269564   -0.128709
 C         -2.488525    2.025433    0.096179
 H         -1.842960    2.153615   -0.781515
 H         -3.200621    2.854825    0.107810
 H         -1.851020    2.122036    0.983699
 C         -5.149426   -3.282086   -0.008745
 H         -4.436741   -4.110940   -0.014376
 H         -5.798641   -3.408103    0.866346
 H         -5.781889   -3.381773   -0.899369
 C         13.222306    4.590395    0.040324
 H         12.438904    4.408345   -0.704116
 H         12.734710    4.624838    1.023272
 H         13.638672    5.582413   -0.156260
 C         17.357335    0.338641   -0.125286
 H         16.987138   -0.592546    0.316144
 H         17.653801    0.116732   -1.159048
 H         18.260924    0.623623    0.421821
