       108
S0: Total Energy = -6092.76759760
 C        -10.801696   -4.676220    0.067698
 C         -9.806511   -3.696798    0.077998
 C        -10.218335   -2.347107    0.069076
 C        -11.613795   -2.040559    0.066408
 C        -12.607072   -3.017921    0.055585
 C        -12.195712   -4.368038    0.063827
 C        -13.005241   -5.558931    0.076926
 H        -14.088446   -5.540407    0.091079
 C        -12.268449   -6.699037    0.085472
 S        -10.539448   -6.417603    0.079198
 C        -10.139992   -0.004550    0.045882
 S        -11.885998   -0.300590    0.056751
 C         -9.410802   -1.164017    0.053845
 H         -8.328417   -1.181147    0.035542
 H        -12.634436   -7.717714    0.097664
 C         -9.642356    1.343180    0.027918
 C        -10.249423    2.579914    0.010550
 C         -9.212071    3.545696   -0.001960
 H        -11.314130    2.768415    0.006835
 C         -8.021217    2.851877    0.008095
 H         -9.309390    4.620492   -0.016967
 C         -6.637703    3.256051    0.001905
 C         -5.589948    2.341327    0.012435
 C         -6.239981    4.627255   -0.014487
 C         -4.241686    2.742772    0.004419
 C         -4.870049    5.012457   -0.022493
 C         -3.797057    4.064033   -0.014499
 F         -3.339303    1.738924    0.015929
 N         -6.995084    5.747083   -0.032028
 N         -4.815367    6.361731   -0.045033
 N         -6.094878    6.718923   -0.053497
 C         -6.487082    8.120769   -0.016670
 H         -5.791752    8.690776   -0.633017
 H         -7.500264    8.196946   -0.409007
 H         -6.456273    8.489211    1.012573
 C         -2.415064    4.479731   -0.025103
 C         -1.822392    5.727070   -0.040805
 C         -0.421939    5.516108   -0.046733
 H         -2.348139    6.669068   -0.047162
 C         -0.225532    4.152280   -0.034391
 H          0.349833    6.273353   -0.058104
 C          0.938924    3.312473   -0.033712
 C          0.974038    1.942209   -0.005304
 S          2.555855    4.031934   -0.071923
 C          2.299984    1.405364   -0.014446
 H          0.079290    1.333689    0.034256
 C          3.293043    2.432476   -0.044459
 C          2.705954    0.051798    0.009879
 C          4.661396    2.169820   -0.034314
 C          4.074472   -0.210792    0.018951
 C          5.067170    0.816166   -0.009973
 S          4.811646   -1.810067    0.044624
 C          6.393300    0.279176   -0.019270
 C          6.429355   -1.090859    0.007478
 H          7.284893    0.892166   -0.058580
 C          7.589469   -1.937228    0.006263
 C          7.768796   -3.303177    0.022583
 C          9.167488   -3.533507    0.011943
 H          6.986320   -4.049216    0.039843
 C          9.775080   -2.296855   -0.010582
 H          9.681727   -4.482373    0.019319
 C         11.152134   -1.868596   -0.029647
 C         11.520889   -0.528680   -0.056189
 C         12.241167   -2.791545   -0.023927
 C         12.868036   -0.118935   -0.072453
 C         13.596122   -2.355199   -0.040741
 N         12.230609   -4.142044    0.003278
 C         13.967719   -0.972858   -0.064540
 F         13.064195    1.216846   -0.097059
 N         14.387336   -3.450527   -0.023302
 N         13.518401   -4.454507    0.006343
 C         15.354199   -0.557352   -0.079767
 C         13.964441   -5.839918   -0.032361
 C         16.531968   -1.270610   -0.075243
 H         14.891120   -5.919340    0.535889
 H         13.185898   -6.458217    0.412784
 H         14.137852   -6.147028   -1.067687
 C         17.591090   -0.315497   -0.097049
 H         16.612512   -2.346262   -0.058229
 C         16.996173    0.911118   -0.113437
 H         18.653319   -0.516408   -0.100193
 H         17.371562    1.923033   -0.132173
 S         -8.075700   -4.155954    0.060582
 S        -14.337525   -2.554632    0.071462
 S          1.522866   -1.290069    0.073104
 S          5.846256    3.510693   -0.094047
 C         -7.629768   -3.906067    1.826981
 H         -8.222318   -4.559922    2.470091
 H         -6.572763   -4.170249    1.915492
 H         -7.767121   -2.862904    2.119972
 C        -14.775189   -2.783022   -1.699743
 H        -14.641065   -3.823800   -2.002596
 H        -15.830337   -2.512552   -1.791570
 H        -14.175752   -2.125793   -2.332966
 C          0.959249   -1.346252   -1.676237
 H          1.794521   -1.568626   -2.343381
 H          0.223154   -2.152317   -1.733813
 H          0.486371   -0.404715   -1.963733
 C          6.368648    3.595484    1.667072
 H          7.104427    4.401543    1.729060
 H          5.518293    3.829802    2.310669
 H          6.832652    2.657970    1.981225
 H         -5.788340    1.276230    0.026267
 H         10.767780    0.250353   -0.065834
 O         -8.282028    1.503758    0.026926
 O         -1.437613    3.517333   -0.021405
 O          8.811934   -1.318191   -0.013706
 O         15.641909    0.787240   -0.103272
       108
T1: Total Energy = -6092.71727259
 C        -10.937365   -4.622954    0.071090
 C         -9.918549   -3.668785    0.082236
 C        -10.297374   -2.306167    0.073793
 C        -11.688500   -1.966897    0.072365
 C        -12.702621   -2.919318    0.060230
 C        -12.323542   -4.281566    0.066779
 C        -13.161066   -5.450885    0.079188
 H        -14.243517   -5.405794    0.093107
 C        -12.452682   -6.610093    0.087537
 S        -10.717767   -6.370685    0.082445
 C        -10.166381    0.038893    0.051420
 S        -11.922520   -0.220042    0.064843
 C         -9.463919   -1.149920    0.057638
 H         -8.382450   -1.191893    0.035158
 H        -12.843955   -7.619277    0.099042
 C         -9.634093    1.354059    0.034334
 C        -10.216333    2.622290    0.021488
 C         -9.179920    3.555788    0.008193
 H        -11.278358    2.827153    0.021800
 C         -7.972322    2.835031    0.012955
 H         -9.252790    4.632470   -0.004195
 C         -6.624056    3.222331    0.004273
 C         -5.555715    2.269829    0.010119
 C         -6.203896    4.600354   -0.009810
 C         -4.237497    2.644352   -0.000742
 C         -4.831241    4.970687   -0.020854
 C         -3.757394    3.999756   -0.018829
 F         -3.317882    1.654936    0.005357
 N         -6.945637    5.719917   -0.023456
 N         -4.756750    6.310681   -0.041252
 N         -6.035892    6.696148   -0.051407
 C         -6.412016    8.096407    0.022354
 H         -5.657857    8.683251   -0.502595
 H         -7.384601    8.214538   -0.455638
 H         -6.472210    8.423621    1.065543
 C         -2.408649    4.376145   -0.032833
 C         -1.792773    5.650984   -0.052275
 C         -0.420573    5.446106   -0.060693
 H         -2.327149    6.588094   -0.059056
 C         -0.205279    4.060761   -0.046274
 H          0.352551    6.202288   -0.075348
 C          0.953807    3.257653   -0.046835
 C          1.005598    1.870322   -0.022520
 S          2.572422    3.985434   -0.079633
 C          2.324281    1.350414   -0.031957
 H          0.114042    1.257297    0.016715
 C          3.315790    2.387021   -0.055394
 C          2.741892   -0.006363   -0.010968
 C          4.681373    2.133322   -0.040563
 C          4.109659   -0.257549    0.003061
 C          5.097632    0.777366   -0.018637
 S          4.858394   -1.852039    0.025309
 C          6.422124    0.252777   -0.025735
 C          6.470578   -1.121583   -0.003453
 H          7.309729    0.871819   -0.060507
 C          7.635783   -1.953823   -0.003371
 C          7.828556   -3.320327    0.009704
 C          9.227084   -3.537655    0.002903
 H          7.052547   -4.073188    0.022411
 C          9.824941   -2.294367   -0.014217
 H          9.750195   -4.481673    0.009293
 C         11.197581   -1.856456   -0.027699
 C         11.556524   -0.512964   -0.049336
 C         12.293622   -2.771463   -0.021103
 C         12.899950   -0.093282   -0.060165
 C         13.645135   -2.324708   -0.032396
 N         12.293256   -4.121883    0.002319
 C         14.006356   -0.939452   -0.051142
 F         13.086817    1.243829   -0.080379
 N         14.444658   -3.413917   -0.015498
 N         13.583517   -4.424635    0.008588
 C         15.389208   -0.513674   -0.060757
 C         14.040184   -5.806520   -0.032810
 C         16.572408   -1.218411   -0.054239
 H         14.967648   -5.879649    0.534965
 H         13.266673   -6.431708    0.411508
 H         14.215554   -6.110383   -1.068765
 C         17.624381   -0.255698   -0.070092
 H         16.660677   -2.293502   -0.039787
 C         17.020466    0.966700   -0.085161
 H         18.688058   -0.448743   -0.070320
 H         17.388669    1.981319   -0.100004
 S         -8.200639   -4.169552    0.063869
 S        -14.421811   -2.416617    0.077024
 S          1.568051   -1.354248    0.045823
 S          5.858765    3.479983   -0.093297
 C         -7.735641   -3.899139    1.822591
 H         -8.335409   -4.530925    2.480880
 H         -6.683116   -4.181854    1.907184
 H         -7.850859   -2.848937    2.099421
 C        -14.862293   -2.621741   -1.696387
 H        -14.750658   -3.662880   -2.007117
 H        -15.911134   -2.327456   -1.787511
 H        -14.247664   -1.973114   -2.323911
 C          0.989853   -1.396890   -1.699644
 H          1.819748   -1.614421   -2.374971
 H          0.253253   -2.202481   -1.756501
 H          0.514493   -0.453456   -1.976319
 C          6.379592    3.561140    1.668629
 H          7.113542    4.368631    1.733311
 H          5.528187    3.791704    2.312156
 H          6.845539    2.623853    1.980542
 H         -5.780176    1.210201    0.022303
 H         10.797466    0.260258   -0.059212
 O         -8.266065    1.485862    0.029431
 O         -1.419157    3.417129   -0.029659
 O          8.853772   -1.324178   -0.017700
 O         15.667266    0.833067   -0.079762
       108
S1: Total Energy = -6092.69731357
 C        -10.861300   -4.651381    0.065109
 C         -9.851989   -3.687476    0.078425
 C        -10.244247   -2.327011    0.071407
 C        -11.640125   -2.003178    0.069351
 C        -12.644030   -2.965706    0.054924
 C        -12.251284   -4.324982    0.059724
 C        -13.076237   -5.502422    0.069815
 H        -14.159185   -5.468276    0.082598
 C        -12.356668   -6.655284    0.077499
 S        -10.624064   -6.397495    0.074751
 C        -10.138266    0.018458    0.051030
 S        -11.891107   -0.258879    0.063439
 C         -9.424509   -1.162834    0.056769
 H         -8.342537   -1.193449    0.034608
 H        -12.737782   -7.668342    0.087273
 C         -9.622573    1.343221    0.034442
 C        -10.216402    2.599824    0.020289
 C         -9.181559    3.546955    0.007477
 H        -11.279901    2.796519    0.019140
 C         -7.979682    2.840281    0.013974
 H         -9.266036    4.622884   -0.005635
 C         -6.616747    3.236277    0.006048
 C         -5.557234    2.301862    0.013370
 C         -6.209872    4.609974   -0.008739
 C         -4.226581    2.690386    0.002811
 C         -4.837368    4.989955   -0.019490
 C         -3.764673    4.029668   -0.016079
 F         -3.312895    1.695168    0.010540
 N         -6.959719    5.729689   -0.022730
 N         -4.773313    6.334104   -0.040114
 N         -6.055227    6.705526   -0.048469
 C         -6.439738    8.105069    0.013164
 H         -5.703307    8.689628   -0.538764
 H         -7.425338    8.207384   -0.440562
 H         -6.474694    8.444843    1.053223
 C         -2.402449    4.424018   -0.030436
 C         -1.799655    5.691737   -0.051377
 C         -0.419929    5.491709   -0.059880
 H         -2.336167    6.627589   -0.059202
 C         -0.201985    4.110487   -0.043757
 H          0.349613    6.251452   -0.075617
 C          0.952259    3.305632   -0.043265
 C          1.000816    1.911965   -0.015700
 S          2.573256    4.024148   -0.078862
 C          2.306937    1.388369   -0.026077
 H          0.105018    1.305263    0.027359
 C          3.310321    2.421300   -0.051578
 C          2.720107    0.021760   -0.000810
 C          4.669601    2.162381   -0.033897
 C          4.081382   -0.235104    0.015835
 C          5.081459    0.796573   -0.008111
 S          4.821059   -1.836141    0.041751
 C          6.391425    0.270913   -0.017222
 C          6.439340   -1.115926    0.009074
 H          7.283011    0.884036   -0.057506
 C          7.594969   -1.935929    0.009733
 C          7.790441   -3.313190    0.029719
 C          9.177347   -3.532090    0.019777
 H          7.011401   -4.062791    0.049207
 C          9.786531   -2.283633   -0.006290
 H          9.699963   -4.476459    0.029612
 C         11.152243   -1.861843   -0.026680
 C         11.523399   -0.513687   -0.057094
 C         12.244229   -2.786013   -0.018848
 C         12.863559   -0.106563   -0.074696
 C         13.598486   -2.347815   -0.037104
 N         12.234681   -4.134438    0.012166
 C         13.968860   -0.964326   -0.064613
 F         13.066828    1.227715   -0.103053
 N         14.391173   -3.441185   -0.016785
 N         13.524325   -4.447662    0.016432
 C         15.349225   -0.548152   -0.081004
 C         13.970916   -5.832327   -0.021500
 C         16.530445   -1.262413   -0.073607
 H         14.907237   -5.906858    0.531408
 H         13.201393   -6.449346    0.441075
 H         14.127108   -6.146953   -1.057508
 C         17.587521   -0.309100   -0.098752
 H         16.610154   -2.338026   -0.052527
 C         16.992204    0.919078   -0.119770
 H         18.649831   -0.509348   -0.100993
 H         17.369256    1.930343   -0.142150
 S         -8.130066   -4.171194    0.059829
 S        -14.368244   -2.480886    0.070779
 S          1.539067   -1.316450    0.064108
 S          5.855277    3.499213   -0.091695
 C         -7.662678   -3.888138    1.816192
 H         -8.251918   -4.525480    2.478663
 H         -6.606060   -4.155977    1.898755
 H         -7.791676   -2.838613    2.089471
 C        -14.805590   -2.688603   -1.703142
 H        -14.681773   -3.728013   -2.015106
 H        -15.857650   -2.406143   -1.794925
 H        -14.197763   -2.032356   -2.329412
 C          0.932209   -1.347280   -1.672477
 H          1.747832   -1.577244   -2.360963
 H          0.181551   -2.140501   -1.718321
 H          0.468102   -0.395863   -1.940555
 C          6.396817    3.569279    1.664920
 H          7.142550    4.366400    1.722877
 H          5.555512    3.810252    2.317799
 H          6.853009    2.625082    1.970234
 H         -5.768730    1.239526    0.026230
 H         10.768592    0.263475   -0.068758
 O         -8.257386    1.490905    0.030994
 O         -1.417989    3.467720   -0.026066
 O          8.817674   -1.310297   -0.011879
 O         15.638904    0.796895   -0.109401
