       108
S0: Total Energy = -7384.66652311
 C        -14.951538   -3.535570   -0.009240
 C        -13.589390   -3.228934   -0.009294
 C        -13.227467   -1.865394    0.016954
 C        -14.249503   -0.868529    0.057332
 C        -15.609160   -1.174682    0.057115
 C        -15.972468   -2.538292    0.031401
 C        -17.288410   -3.122832    0.046562
 H        -18.198078   -2.536066    0.091549
 C        -17.264612   -4.479743    0.014426
 S        -15.648085   -5.152720   -0.036108
 C        -11.914220    0.083946    0.035093
 S        -13.560259    0.750110    0.087425
 C        -11.917981   -1.286028    0.001986
 H        -11.015531   -1.884683   -0.046699
 H        -18.113080   -5.151953    0.019120
 C        -10.780944    0.978718    0.032137
 C        -10.770971    2.360904    0.042948
 S         -9.138247    0.361297    0.016426
 C         -9.474963    2.924105    0.037968
 H        -11.676875    2.957689    0.053435
 C         -8.458715    1.985462    0.023387
 H         -9.278407    3.987901    0.044471
 C         -7.022531    2.198179    0.015355
 C         -6.101524    1.155034    0.003389
 C         -6.426793    3.500036    0.021874
 C         -4.714068    1.371580   -0.003885
 C         -5.012841    3.693674    0.014465
 C         -4.075192    2.607972   -0.000034
 F         -3.953596    0.249022   -0.015668
 N         -7.016008    4.715966    0.029010
 N         -4.775708    5.023312    0.017239
 N         -5.991848    5.553850    0.021521
 C         -6.187106    6.995515    0.089161
 H         -5.392620    7.476981   -0.480687
 H         -7.161861    7.224944   -0.339460
 H         -6.149886    7.327582    1.130499
 C         -2.635875    2.796587   -0.007648
 C         -1.944758    3.998473   -0.005845
 S         -1.495856    1.451095   -0.020955
 C         -0.541619    3.851381   -0.013216
 H         -2.450538    4.954229    0.001947
 C         -0.118613    2.534762   -0.020229
 H          0.141890    4.693954   -0.009910
 C          1.231393    2.024163   -0.027297
 C          1.650131    0.718697    0.019001
 S          2.600230    3.153920   -0.103159
 C          3.071537    0.561759   -0.003033
 H          0.970156   -0.122894    0.085642
 C          3.746001    1.819664   -0.062060
 C          3.829838   -0.630059    0.034640
 C          5.134333    1.938444   -0.068556
 C          5.218328   -0.511125    0.027847
 C          5.892585    0.746487   -0.030601
 S          6.363596   -1.845982    0.069095
 C          7.314083    0.589336   -0.051606
 C          7.732041   -0.716073   -0.005061
 H          7.994078    1.431089   -0.116927
 C          9.081632   -1.227248   -0.010179
 C          9.508341   -2.542006   -0.011452
 S         10.462515   -0.143181   -0.011355
 C         10.914070   -2.688060   -0.016280
 H          8.824565   -3.384296   -0.012317
 C         11.599963   -1.486833   -0.019576
 H         11.422311   -3.643101   -0.018961
 C         13.034236   -1.256150   -0.028021
 C         13.598390    0.014092   -0.075449
 C         13.994363   -2.316951    0.011008
 C         14.987994    0.225760   -0.079305
 C         15.401207   -2.074590    0.005850
 N         13.799013   -3.652888    0.065125
 C         15.968923   -0.758544   -0.039166
 F         15.372576    1.525767   -0.128254
 N         16.028142   -3.270588    0.056832
 N         15.028632   -4.141961    0.093361
 C         17.402295   -0.504836   -0.043425
 C         15.276615   -5.576902    0.089358
 C         18.422362   -1.439217   -0.004762
 S         18.089130    1.120568   -0.100939
 H         16.181628   -5.770893    0.664754
 H         14.418194   -6.069721    0.544169
 H         15.407956   -5.929155   -0.937681
 C         19.723423   -0.868646   -0.020714
 H         18.228824   -2.502588    0.033952
 C         19.703329    0.499377   -0.071430
 H         20.635687   -1.454741    0.004605
 H         20.542055    1.182808   -0.093484
 S        -12.360601   -4.529940   -0.080802
 S        -16.834771    0.130131    0.128461
 S          3.054763   -2.241236    0.130413
 S          5.910900    3.549187   -0.162820
 C        -11.867555   -4.641716    1.687472
 H        -12.722161   -4.915752    2.309389
 H        -11.110293   -5.428033    1.744200
 H        -11.436461   -3.699243    2.032230
 C        -17.340962    0.229197   -1.636542
 H        -17.777761   -0.714783   -1.969807
 H        -18.095965    1.017612   -1.694346
 H        -16.490326    0.494737   -2.267531
 C          2.569311   -2.501007   -1.624258
 H          3.449180   -2.507090   -2.270781
 H          2.081683   -3.478511   -1.664718
 H          1.865576   -1.732542   -1.951453
 C          6.377606    3.815061    1.596066
 H          6.864135    4.793033    1.638664
 H          5.490929    3.822723    2.233203
 H          7.078148    3.047945    1.933250
 H         -6.423522    0.119072   -0.000875
 H         12.979603    0.904431   -0.114468
       108
T1: Total Energy = -7384.61783389
 C        -14.943568   -3.512447    0.032714
 C        -13.580199   -3.214021    0.039010
 C        -13.209154   -1.849433    0.045715
 C        -14.229401   -0.845502    0.063104
 C        -15.588151   -1.145107    0.056013
 C        -15.959540   -2.509384    0.048010
 C        -17.277355   -3.085417    0.061778
 H        -18.184028   -2.492917    0.089251
 C        -17.261935   -4.443902    0.052615
 S        -15.649349   -5.126327    0.027853
 C        -11.885362    0.099514    0.041304
 S        -13.534349    0.772221    0.072514
 C        -11.902102   -1.282512    0.029549
 H        -11.002163   -1.885571   -0.006812
 H        -18.114638   -5.110627    0.061205
 C        -10.757044    0.968042    0.031529
 C        -10.733236    2.370234    0.033526
 S         -9.110393    0.335225    0.017878
 C         -9.458846    2.924105    0.024103
 H        -11.640311    2.965691    0.041599
 C         -8.416269    1.969909    0.014723
 H         -9.254078    3.986147    0.023640
 C         -7.023270    2.181819    0.005408
 C         -6.078291    1.107489   -0.000744
 C         -6.410587    3.490669    0.003659
 C         -4.723689    1.311242   -0.009679
 C         -4.998158    3.678044   -0.005865
 C         -4.053026    2.577900   -0.014294
 F         -3.941455    0.203468   -0.014896
 N         -6.994547    4.701132    0.002148
 N         -4.752134    4.998518   -0.013049
 N         -5.966584    5.546874   -0.015958
 C         -6.155847    6.985351    0.062709
 H         -5.326179    7.468977   -0.453051
 H         -7.100593    7.232357   -0.421536
 H         -6.180519    7.310073    1.107722
 C         -2.655674    2.741599   -0.023591
 C         -1.940766    3.970135   -0.029103
 S         -1.499248    1.390527   -0.029194
 C         -0.565109    3.828105   -0.036749
 H         -2.456067    4.920525   -0.027246
 C         -0.120644    2.492493   -0.037321
 H          0.119751    4.669634   -0.041459
 C          1.211202    2.011031   -0.044053
 C          1.645085    0.691237   -0.036357
 S          2.585817    3.144562   -0.062606
 C          3.054656    0.542918   -0.045990
 H          0.965576   -0.152677   -0.006731
 C          3.731007    1.807478   -0.052999
 C          3.818967   -0.652900   -0.039356
 C          5.114939    1.927378   -0.035590
 C          5.204081   -0.530018   -0.021703
 C          5.877786    0.731985   -0.027395
 S          6.352511   -1.863294   -0.011774
 C          7.293945    0.580043   -0.033639
 C          7.718402   -0.728886   -0.025782
 H          7.972858    1.424826   -0.058372
 C          9.066726   -1.231308   -0.028042
 C          9.500725   -2.546104   -0.034930
 S         10.443968   -0.140812   -0.017408
 C         10.904983   -2.685405   -0.033061
 H          8.820606   -3.391299   -0.042175
 C         11.586651   -1.479911   -0.025478
 H         11.418032   -3.637853   -0.037868
 C         13.018768   -1.244554   -0.023823
 C         13.578669    0.028919   -0.053376
 C         13.982869   -2.302354    0.007591
 C         14.966831    0.245717   -0.048158
 C         15.388673   -2.054456    0.012176
 N         13.792513   -3.639400    0.045242
 C         15.951612   -0.735775   -0.014871
 F         15.347222    1.547393   -0.079816
 N         16.020059   -3.248464    0.052416
 N         15.024001   -4.124133    0.073915
 C         17.383507   -0.476634   -0.009499
 C         15.277650   -5.557986    0.054673
 C         18.407070   -1.407833    0.022386
 S         18.064626    1.151936   -0.044141
 H         16.180466   -5.755058    0.632461
 H         14.418873   -6.059338    0.499362
 H         15.415622   -5.897822   -0.975671
 C         19.705823   -0.832390    0.019281
 H         18.217332   -2.472301    0.047228
 C         19.680740    0.536206   -0.014899
 H         20.620198   -1.415275    0.041568
 H         20.517064    1.222860   -0.024853
 S        -12.359626   -4.522240   -0.003023
 S        -16.808576    0.165561    0.097658
 S          3.045953   -2.265827   -0.009009
 S          5.891251    3.539931   -0.065486
 C        -11.832536   -4.568385    1.758501
 H        -12.674855   -4.820103    2.406049
 H        -11.072912   -5.351255    1.829411
 H        -11.396594   -3.613512    2.060268
 C        -17.297560    0.242787   -1.673257
 H        -17.734697   -0.704030   -1.997993
 H        -18.048983    1.033109   -1.749130
 H        -16.439856    0.496566   -2.299513
 C          2.563226   -2.458388   -1.773534
 H          3.444693   -2.443047   -2.417623
 H          2.072977   -3.432313   -1.850665
 H          1.862272   -1.676520   -2.073535
 C          6.334817    3.747817    1.707294
 H          6.821660    4.723216    1.787875
 H          5.439745    3.735988    2.332466
 H          7.030211    2.969339    2.028655
 H         -6.416934    0.077151    0.001649
 H         12.956562    0.917257   -0.084347
       108
S1: Total Energy = -7384.59790705
 C        -14.921813   -3.532913    0.023201
 C        -13.559571   -3.229786    0.020582
 C        -13.192464   -1.863252    0.040608
 C        -14.217514   -0.863881    0.079737
 C        -15.574935   -1.168592    0.081020
 C        -15.941912   -2.534403    0.059583
 C        -17.256945   -3.115653    0.078478
 H        -18.165505   -2.526836    0.121193
 C        -17.237343   -4.474182    0.053051
 S        -15.622072   -5.149774    0.005857
 C        -11.876938    0.089539    0.047462
 S        -13.527201    0.755435    0.102578
 C        -11.888766   -1.290421    0.019123
 H        -10.986771   -1.889361   -0.033618
 H        -18.087509   -5.144122    0.061422
 C        -10.751577    0.969290    0.037934
 C        -10.735014    2.363987    0.048549
 S         -9.104058    0.348844    0.013002
 C         -9.453308    2.924372    0.036421
 H        -11.642802    2.958207    0.064181
 C         -8.419631    1.980793    0.016604
 H         -9.254881    3.987752    0.041589
 C         -7.008098    2.194344    0.002780
 C         -6.072887    1.135718   -0.009192
 C         -6.406317    3.499328    0.002947
 C         -4.704379    1.347781   -0.021333
 C         -4.991981    3.693016   -0.010398
 C         -4.049983    2.600534   -0.024147
 F         -3.929334    0.234051   -0.031372
 N         -6.995083    4.712334    0.007328
 N         -4.752324    5.017887   -0.013927
 N         -5.970218    5.556517   -0.009805
 C         -6.163958    6.995228    0.066302
 H         -5.351904    7.480561   -0.475265
 H         -7.124124    7.233735   -0.390591
 H         -6.159167    7.323181    1.110414
 C         -2.636043    2.776447   -0.036046
 C         -1.932965    3.998320   -0.042758
 S         -1.486743    1.430668   -0.042545
 C         -0.550543    3.860562   -0.051776
 H         -2.449683    4.948028   -0.040458
 C         -0.105579    2.528989   -0.051893
 H          0.131244    4.704596   -0.057247
 C          1.221846    2.045412   -0.058241
 C          1.655294    0.718155   -0.045486
 S          2.600003    3.171405   -0.082110
 C          3.053333    0.564213   -0.056573
 H          0.970212   -0.121060   -0.008864
 C          3.741244    1.829184   -0.067032
 C          3.816809   -0.641962   -0.043649
 C          5.119957    1.943395   -0.044608
 C          5.196581   -0.525482   -0.021345
 C          5.882122    0.737649   -0.029549
 S          6.339107   -1.866509   -0.005210
 C          7.283941    0.582197   -0.034994
 C          7.712940   -0.739591   -0.020607
 H          7.967987    1.422741   -0.064597
 C          9.047319   -1.231128   -0.017470
 C          9.488449   -2.556054   -0.005288
 S         10.429914   -0.138505   -0.024801
 C         10.881218   -2.693950   -0.002201
 H          8.806573   -3.399736    0.001377
 C         11.571946   -1.481386   -0.012654
 H         11.396454   -3.645185    0.006875
 C         12.992862   -1.255668   -0.013869
 C         13.561097    0.022911   -0.044862
 C         13.956977   -2.317765    0.016040
 C         14.943483    0.233475   -0.042573
 C         15.363288   -2.072842    0.018232
 N         13.763489   -3.652570    0.054095
 C         15.930118   -0.754947   -0.010159
 F         15.333981    1.531923   -0.075287
 N         15.992260   -3.267507    0.057550
 N         14.994810   -4.142346    0.081378
 C         17.357046   -0.499128   -0.006792
 C         15.244368   -5.576342    0.059468
 C         18.381072   -1.434549    0.025172
 S         18.044448    1.128871   -0.044152
 H         16.151007   -5.776153    0.630390
 H         14.387941   -6.075957    0.510794
 H         15.373575   -5.917251   -0.971830
 C         19.678992   -0.862939    0.019955
 H         18.187966   -2.498302    0.051461
 C         19.657544    0.507213   -0.015907
 H         20.592281   -1.447464    0.041940
 H         20.496576    1.190572   -0.027584
 S        -12.335698   -4.532864   -0.049430
 S        -16.800024    0.136600    0.149251
 S          3.035511   -2.248292   -0.003678
 S          5.905531    3.549492   -0.080648
 C        -11.774766   -4.585960    1.701560
 H        -12.603071   -4.847121    2.363329
 H        -11.008438   -5.363800    1.753730
 H        -11.340027   -3.629729    2.000761
 C        -17.303531    0.234905   -1.616570
 H        -17.738467   -0.709797   -1.950348
 H        -18.059402    1.022392   -1.676408
 H        -16.451981    0.501024   -2.246127
 C          2.501871   -2.429257   -1.755161
 H          3.365982   -2.424519   -2.422435
 H          1.995929   -3.395951   -1.820666
 H          1.804191   -1.637048   -2.034743
 C          6.371962    3.753320    1.687156
 H          6.871697    4.722693    1.760695
 H          5.483577    3.753269    2.321818
 H          7.061141    2.966782    2.001985
 H         -6.402369    0.102317   -0.008490
 H         12.940386    0.912177   -0.073925
