        98
S0: Total Energy = -7213.46288989
 C        -14.527205   -0.730566   -0.028039
 C        -14.027621    0.558707   -0.033860
 C        -12.640248    0.875857   -0.004203
 C        -11.642879   -0.112621    0.031424
 C        -12.113661   -1.474196    0.038272
 C        -13.532233   -1.786801    0.008757
 H        -14.711279    1.400999   -0.065167
 C        -12.170382    2.237638   -0.009494
 C        -10.256169    0.203570    0.061926
 C         -9.757109    1.494571    0.055416
 C        -10.752221    2.551375    0.020028
 H         -9.572220   -0.638355    0.097924
 N        -13.773304   -3.099221    0.021579
 N        -11.325899   -2.547702    0.071850
 N        -12.958181    3.311302   -0.042130
 N        -10.510888    3.863182    0.007578
 C         -8.329813    1.772644    0.079028
 C         -7.666821    2.978932    0.190607
 S         -7.157049    0.468810   -0.042772
 C         -6.249768    2.893024    0.199785
 H         -8.195388    3.918948    0.274541
 C         -5.799885    1.580270    0.092721
 C        -15.959145   -1.008732   -0.055558
 C        -16.620023   -2.218066   -0.116992
 S        -17.133591    0.307203   -0.013045
 C        -18.045567   -2.114784   -0.133680
 H        -16.091523   -3.161531   -0.149662
 C        -18.457482   -0.808785   -0.082457
 C        -18.969097   -3.302122   -0.199361
 H        -20.017791   -2.990454   -0.200319
 H        -18.792311   -3.893217   -1.106251
 H        -18.817047   -3.971228    0.656356
 C         -5.383416    4.119214    0.330715
 H         -4.626870    4.006673    1.115164
 H         -4.854339    4.349015   -0.602747
 H         -5.997983    4.989039    0.580066
 H        -19.472664   -0.433049   -0.079780
 S        -12.315102   -3.862954    0.066592
 S        -11.969761    4.626918   -0.036343
 C         -4.463696    1.030629    0.079220
 C         -4.108339   -0.297083    0.256877
 S         -3.030431    2.040555   -0.234040
 C         -2.715397   -0.500974    0.147013
 H         -4.828535   -1.077526    0.473055
 C         -1.980391    0.654882   -0.114765
 S         -1.665405   -1.886602    0.266563
 C         -0.587452    0.451052   -0.224217
 C         -0.231972   -0.876680   -0.046361
 H          0.132671    1.231657   -0.440064
 C          1.104087   -1.426290   -0.060108
 S          2.461743   -0.314108    0.064879
 C          1.553766   -2.739840   -0.160159
 C          3.634230   -1.618898   -0.051154
 C          2.970641   -2.825855   -0.153732
 C          0.687162   -3.966839   -0.281306
 C          5.061244   -1.341168   -0.032250
 H          3.498889   -3.766450   -0.232954
 H          1.301750   -4.838960   -0.522418
 H          0.156917   -4.188307    0.653492
 H         -0.068426   -3.860974   -1.067638
 C          5.560760   -0.049882   -0.044806
 C          6.056249   -2.398007    0.004661
 C          6.946864    0.266480   -0.019715
 H          4.876592    0.791842   -0.081613
 C          7.474512   -2.084469    0.029195
 N          5.814815   -3.709722    0.023278
 C          7.944914   -0.722576    0.016561
 C          7.417310    1.628410   -0.032133
 N          8.262234   -3.157897    0.064446
 S          7.273663   -4.473634    0.066794
 C          9.331179   -0.406240    0.041889
 C          8.835664    1.941568   -0.007932
 N          6.629787    2.701970   -0.067334
 C          9.830605    0.884822    0.028756
 H         10.015554   -1.247708    0.080105
 N          9.077503    3.253275   -0.026977
 S          7.618917    4.017465   -0.070159
 C         11.258259    1.162575    0.045811
 C         11.921919    2.367335    0.168964
 S         12.430558   -0.139357   -0.099919
 C         13.339897    2.279777    0.172464
 H         11.394157    3.306310    0.268877
 C         13.786339    0.969391    0.048677
 C         14.211218    3.501052    0.319009
 C         15.124952    0.417049    0.027884
 H         15.023761    3.341993    1.035698
 H         14.669395    3.793419   -0.634402
 H         13.615276    4.349832    0.667365
 C         15.491453   -0.885095    0.314101
 S         16.533177    1.386598   -0.464965
 H         14.786017   -1.636394    0.649630
 C         16.880183   -1.104061    0.141391
 C         17.593593    0.018073   -0.271845
 S         17.950138   -2.468887    0.351491
 C         18.993892   -0.199352   -0.420491
 C         19.325922   -1.492013   -0.121833
 H         19.712359    0.549599   -0.732142
 H         20.307906   -1.944990   -0.152561
        98
T1: Total Energy = -7213.42557831
 C         14.493276   -0.729478    0.036555
 C         13.993128    0.560531    0.039734
 C         12.606514    0.876920    0.022144
 C         11.608713   -0.113223    0.001981
 C         12.079742   -1.474953   -0.001348
 C         13.498468   -1.786548    0.015685
 H         14.677033    1.402926    0.059328
 C         12.136060    2.238778    0.025836
 C         10.223477    0.202121   -0.014086
 C          9.723184    1.494482   -0.010794
 C         10.717744    2.552573    0.009518
 H          9.539974   -0.640837   -0.030686
 N         13.740147   -3.098802    0.008135
 N         11.292173   -2.548677   -0.020522
 N         12.924024    3.312404    0.044213
 N         10.476620    3.864107    0.016466
 C          8.297688    1.768830   -0.025410
 C          7.631639    2.981896   -0.045856
 S          7.128711    0.456778   -0.017527
 C          6.219276    2.897011   -0.056938
 H          8.160595    3.925255   -0.053397
 C          5.765993    1.574462   -0.044722
 C         15.924736   -1.006521    0.052221
 C         16.586857   -2.215861    0.110105
 S         17.098287    0.309905   -0.002625
 C         18.012018   -2.111928    0.114146
 H         16.059071   -3.159471    0.149215
 C         18.422695   -0.805468    0.057044
 C         18.936937   -3.298480    0.173798
 H         19.985338   -2.986045    0.165457
 H         18.768145   -3.888245    1.083038
 H         18.778102   -3.968879   -0.679636
 C          5.354548    4.129719   -0.080487
 H          4.707129    4.160820   -0.965034
 H          4.706435    4.193838    0.801895
 H          5.980015    5.026513   -0.096583
 H         19.437693   -0.429406    0.044891
 S         12.282166   -3.863798   -0.017517
 S         11.936272    4.628566    0.041180
 C          4.437807    1.031029   -0.049784
 C          4.089959   -0.319919   -0.053577
 S          2.984081    2.063892   -0.046968
 C          2.702635   -0.518514   -0.053386
 H          4.823199   -1.117811   -0.057278
 C          1.944385    0.663228   -0.050052
 S          1.667503   -1.921344   -0.057146
 C          0.560022    0.467879   -0.050356
 C          0.207028   -0.889470   -0.053458
 H         -0.173327    1.265520   -0.048206
 C         -1.110802   -1.419357   -0.052158
 S         -2.475490   -0.295409   -0.041586
 C         -1.575880   -2.755383   -0.057008
 C         -3.652767   -1.612679   -0.043250
 C         -2.969819   -2.840830   -0.052023
 C         -0.704459   -3.982417   -0.066601
 C         -5.050356   -1.357216   -0.035369
 H         -3.506374   -3.779703   -0.054750
 H         -1.324946   -4.882531   -0.071023
 H         -0.058306   -4.018163   -0.951846
 H         -0.054829   -4.029450    0.815590
 C         -5.559076   -0.032264   -0.030341
 C         -6.043541   -2.420357   -0.030927
 C         -6.909450    0.284984   -0.021025
 H         -4.861403    0.799590   -0.034036
 C         -7.463034   -2.102804   -0.020810
 N         -5.798104   -3.726948   -0.034602
 C         -7.930428   -0.731796   -0.015264
 C         -7.380141    1.656070   -0.016220
 N         -8.255096   -3.166513   -0.017152
 S         -7.269736   -4.505987   -0.025990
 C         -9.283817   -0.412647   -0.004419
 C         -8.800414    1.969431   -0.004858
 N         -6.591385    2.721617   -0.021572
 C         -9.791586    0.906340    0.001898
 H         -9.980221   -1.245544    0.000048
 N         -9.048801    3.276483   -0.002081
 S         -7.580815    4.057564   -0.012891
 C        -11.197675    1.165436    0.014359
 C        -11.879485    2.383539    0.026960
 S        -12.370828   -0.153763    0.016138
 C        -13.283073    2.290604    0.037945
 H        -11.350444    3.326772    0.028574
 C        -13.735177    0.961956    0.034042
 C        -14.156616    3.517389    0.052471
 C        -15.063103    0.415481    0.042024
 H        -14.810846    3.565344   -0.826268
 H        -14.798826    3.553047    0.940590
 H        -13.537182    4.418498    0.054430
 C        -15.407427   -0.931563    0.040693
 S        -16.522382    1.442206    0.054634
 H        -14.674259   -1.729602    0.033901
 C        -16.803498   -1.132528    0.049534
 C        -17.556791    0.041750    0.057823
 S        -17.848689   -2.533284    0.053087
 C        -18.964064   -0.166179    0.067033
 C        -19.264690   -1.501698    0.065579
 H        -19.711570    0.618217    0.074258
 H        -20.246690   -1.955694    0.071125
        98
S1: Total Energy = -7213.41093055
 C         14.478151   -0.734249    0.011603
 C         13.977868    0.560987    0.023580
 C         12.598190    0.879880    0.015553
 C         11.596583   -0.118274   -0.004634
 C         12.066076   -1.481549   -0.018382
 C         13.485779   -1.792770   -0.010414
 H         14.665191    1.400758    0.042385
 C         12.130631    2.242804    0.028983
 C         10.220041    0.198110   -0.010476
 C          9.720042    1.497915    0.002698
 C         10.711648    2.558383    0.022466
 H          9.533015   -0.642320   -0.026588
 N         13.730515   -3.104205   -0.026382
 N         11.277839   -2.553696   -0.039484
 N         12.920250    3.315149    0.048159
 N         10.467639    3.868418    0.037134
 C          8.300270    1.766575   -0.001816
 C          7.631840    2.987185   -0.000878
 S          7.131920    0.454233   -0.008701
 C          6.227601    2.905586   -0.005829
 H          8.167108    3.926799    0.003379
 C          5.767099    1.575504   -0.010403
 C         15.906818   -1.008883    0.020349
 C         16.572426   -2.219519    0.044950
 S         17.080761    0.310747    0.001275
 C         17.996251   -2.113400    0.050185
 H         16.044801   -3.163883    0.059484
 C         18.406045   -0.804686    0.028454
 C         18.923463   -3.299393    0.076338
 H         19.971383   -2.985137    0.075819
 H         18.756280   -3.914362    0.969049
 H         18.764964   -3.946349   -0.795091
 C          5.361728    4.135848   -0.005854
 H          4.715586    4.181760   -0.890819
 H          4.712319    4.179355    0.876864
 H          5.985422    5.033631   -0.003429
 H         19.420931   -0.428047    0.025998
 S         12.269849   -3.874084   -0.048989
 S         11.932270    4.637473    0.057385
 C          4.448374    1.042867   -0.014383
 C          4.098320   -0.317748   -0.018133
 S          2.991753    2.074345   -0.013417
 C          2.719738   -0.515886   -0.019621
 H          4.834227   -1.112943   -0.019371
 C          1.955988    0.670228   -0.017353
 S          1.684261   -1.920306   -0.022931
 C          0.577505    0.473112   -0.018120
 C          0.226820   -0.888558   -0.020789
 H         -0.158483    1.268110   -0.016425
 C         -1.090217   -1.420065   -0.021115
 S         -2.455916   -0.298241   -0.018353
 C         -1.552055   -2.751361   -0.022598
 C         -3.624928   -1.611480   -0.019201
 C         -2.954403   -2.833941   -0.021326
 C         -0.685374   -3.980928   -0.025231
 C         -5.042354   -1.345881   -0.017876
 H         -3.491776   -3.772265   -0.022029
 H         -1.308488   -4.879061   -0.025875
 H         -0.038454   -4.023542   -0.909831
 H         -0.036678   -4.026075    0.857935
 C         -5.541871   -0.040528   -0.022533
 C         -6.030011   -2.408855   -0.011860
 C         -6.911423    0.278332   -0.021786
 H         -4.851148    0.797288   -0.027860
 C         -7.449506   -2.094067   -0.010768
 N         -5.781106   -3.718003   -0.006671
 C         -7.915862   -0.729403   -0.015721
 C         -7.378504    1.642776   -0.028062
 N         -8.240474   -3.164978   -0.004885
 S         -7.249919   -4.493524   -0.000930
 C         -9.287108   -0.410610   -0.016166
 C         -8.798506    1.954821   -0.028876
 N         -6.588820    2.714011   -0.033155
 C         -9.788128    0.892738   -0.022456
 H         -9.977577   -1.248265   -0.013979
 N         -9.047779    3.264437   -0.034227
 S         -7.582520    4.040890   -0.038548
 C        -11.207176    1.161598   -0.021860
 C        -11.881018    2.373558   -0.058154
 S        -12.378380   -0.153362    0.030904
 C        -13.292001    2.282789   -0.049420
 H        -11.353228    3.316949   -0.093394
 C        -13.742099    0.960398   -0.005140
 C        -14.161567    3.512296   -0.089302
 C        -15.073344    0.411454    0.013450
 H        -14.836414    3.510884   -0.953541
 H        -14.782805    3.605545    0.809813
 H        -13.539644    4.409452   -0.155123
 C        -15.420000   -0.932740   -0.001445
 S        -16.528609    1.440891    0.073248
 H        -14.689287   -1.732148   -0.040952
 C        -16.817302   -1.131311    0.035339
 C        -17.567430    0.043471    0.077651
 S        -17.865623   -2.529795    0.036041
 C        -18.975124   -0.161705    0.110188
 C        -19.279455   -1.496128    0.093215
 H        -19.720306    0.624258    0.144762
 H        -20.262109   -1.948355    0.111535
