       106
S0: Total Energy = -7765.20999955
 C         16.741519   -0.682181   -0.034998
 C         16.177587    0.579429    0.013888
 C         14.775732    0.826027    0.011719
 C         13.829518   -0.210987   -0.037724
 C         14.368272   -1.546084   -0.088771
 C         15.800902   -1.786501   -0.087790
 H         16.818404    1.454026    0.060424
 C         14.237300    2.161257    0.062443
 C         12.428444    0.034740   -0.038998
 C         11.864493    1.297813    0.009322
 C         12.804872    2.402934    0.061284
 H         11.788112   -0.840415   -0.083901
 N         16.107908   -3.084041   -0.141532
 N         13.635501   -2.657150   -0.141823
 N         14.970026    3.272498    0.114800
 N         12.497924    3.699940    0.113994
 C         10.424509    1.502253    0.009723
 C          9.699329    2.677607   -0.001670
 S          9.322527    0.132652    0.023833
 C          8.289171    2.519161   -0.003175
 H         10.177881    3.647567   -0.009716
 C          7.908063    1.179540    0.008860
 C          6.603062    0.565054    0.012802
 C          6.315462   -0.789768    0.010325
 S          5.108189    1.504579    0.026647
 C          4.935083   -1.044777    0.019724
 H          7.057024   -1.579330    0.001244
 C          4.106401    0.059963    0.029326
 C         18.185834   -0.887575   -0.034996
 C         18.907818   -2.062761   -0.005587
 S         19.291612    0.486820   -0.071528
 C         20.326391   -1.887692   -0.008271
 H         18.428346   -3.032327    0.017700
 C         20.671041   -0.561694   -0.041979
 C         21.309444   -3.027723    0.022155
 H         22.340952   -2.663408    0.012897
 H         21.176953   -3.642429    0.920836
 H         21.177411   -3.688823   -0.843022
 C          7.359323    3.703944   -0.017449
 H          6.703457    3.701448   -0.896523
 H          6.715048    3.731531    0.869857
 H          7.934446    4.633887   -0.036676
 C          2.672332    0.101333    0.039108
 S          1.671310   -1.343628    0.050158
 C          1.843179    1.205822    0.045747
 C          0.176008   -0.404805    0.064305
 C          0.462951    0.950206    0.059859
 C         -1.128357   -1.020285    0.071672
 H         -0.279003    1.739407    0.069150
 S         -2.543616    0.023677    0.009202
 C         -1.508149   -2.359618    0.122412
 C         -3.644420   -1.346372    0.057998
 C         -2.917718   -2.519893    0.113943
 C         -0.577236   -3.542096    0.183378
 C         -5.083992   -1.144912    0.037587
 H         -3.395286   -3.489654    0.150328
 H          0.062466   -3.607781   -0.705302
 H          0.083047   -3.501059    1.058078
 H         -1.151557   -4.470671    0.245309
 C         -5.650369    0.118549    0.013902
 C         -6.022535   -2.252974    0.039514
 C         -7.050815    0.361642   -0.008445
 H         -5.011201    0.995695    0.013435
 C         -7.455139   -2.014322    0.017191
 N         -5.713670   -3.550433    0.059334
 C         -7.995914   -0.678973   -0.007127
 C         -7.591683    1.696969   -0.033366
 N         -8.186093   -3.127702    0.021027
 C         -9.396416   -0.436001   -0.029503
 C         -9.024350    1.935387   -0.055675
 N         -6.860910    2.810459   -0.037631
 C         -9.962861    0.827351   -0.052872
 H        -10.035533   -1.313164   -0.030147
 N         -9.333484    3.232787   -0.075777
 C        -11.402607    1.028671   -0.071587
 C        -12.129866    2.200626   -0.143959
 S        -12.502879   -0.340726    0.002885
 C        -13.539849    2.039251   -0.146886
 H        -11.653106    3.170059   -0.196792
 C        -13.918400    0.701196   -0.074497
 C        -14.471835    3.220024   -0.224791
 C        -15.223166    0.083843   -0.055259
 H        -15.141497    3.159029   -1.091083
 H        -15.102055    3.305650    0.668999
 H        -13.898577    4.147116   -0.313542
 C        -15.508791   -1.270149   -0.045654
 S        -16.719054    1.021047   -0.026671
 C        -16.890578   -1.526279   -0.015870
 H        -14.766902   -2.059312   -0.062584
 C        -17.717975   -0.423506   -0.002269
 C        -19.156900   -0.381778    0.023006
 S        -20.162394   -1.826548    0.041389
 C        -19.982559    0.721349    0.037520
 C        -21.621403   -0.885276    0.067105
 C        -21.374670    0.458908    0.062270
 H        -22.129935    1.235087    0.075552
 H        -22.578959   -1.387425    0.084515
 H         21.665737   -0.134802   -0.053401
 S         14.689966   -3.919794   -0.187968
 S         13.916658    4.535695    0.160014
 S         -7.130807   -4.390010    0.050722
 S         -7.916512    4.072585   -0.067655
 F        -19.492976    1.979118    0.028782
 F        -17.380279   -2.782692   -0.005139
 F          2.334828    2.461244    0.042037
 F          4.442984   -2.300024    0.018501
       106
T1: Total Energy = -7765.17287205
 C        -16.703778   -0.676898   -0.007681
 C        -16.138280    0.585491   -0.011776
 C        -14.736688    0.830045   -0.006386
 C        -13.791560   -0.209870    0.001223
 C        -14.331644   -1.545407    0.004718
 C        -15.764389   -1.783735    0.000357
 H        -16.778202    1.461864   -0.022624
 C        -14.196689    2.165795   -0.010581
 C        -12.391070    0.034124    0.004918
 C        -11.825607    1.298169    0.001084
 C        -12.764171    2.406010   -0.006810
 H        -11.751749   -0.842947    0.011327
 N        -16.072951   -3.081944    0.006415
 N        -13.600138   -2.658436    0.013133
 N        -14.928328    3.278823   -0.018115
 N        -12.455964    3.703628   -0.011762
 C        -10.386137    1.499260    0.004201
 C         -9.659677    2.676098    0.008052
 S         -9.286960    0.128538    0.003149
 C         -8.252117    2.517701    0.010559
 H        -10.139030    3.645596    0.009140
 C         -7.870664    1.174960    0.008506
 C         -6.569986    0.563651    0.009700
 C         -6.285014   -0.796790    0.010301
 S         -5.074121    1.502089    0.009648
 C         -4.911560   -1.054873    0.010640
 H         -7.029930   -1.583060    0.010619
 C         -4.074234    0.052812    0.010332
 C        -18.147840   -0.880046   -0.010201
 C        -18.871612   -2.053326   -0.070080
 S        -19.251707    0.494277    0.066742
 C        -20.289622   -1.876642   -0.058541
 H        -18.393524   -3.022464   -0.121596
 C        -20.632186   -0.551349    0.012516
 C        -21.274455   -3.014005   -0.117312
 H        -22.305376   -2.648652   -0.095258
 H        -21.145260   -3.604092   -1.032787
 H        -21.140967   -3.698546    0.729181
 C         -7.321142    3.700950    0.015072
 H         -6.671706    3.709094    0.898921
 H         -6.670890    3.715126   -0.868123
 H         -7.894996    4.631689    0.017912
 C         -2.651158    0.081745    0.010441
 S         -1.654701   -1.368397    0.011264
 C         -1.812385    1.193266    0.009648
 C         -0.151963   -0.428353    0.010410
 C         -0.444406    0.939822    0.009596
 C          1.137248   -1.023277    0.010368
 H          0.299984    1.726415    0.008995
 S          2.556316    0.029590    0.008291
 C          1.531278   -2.381241    0.011656
 C          3.663761   -1.346876    0.009080
 C          2.919171   -2.538302    0.010964
 C          0.595007   -3.559155    0.013601
 C          5.073351   -1.164126    0.007696
 H          3.406708   -3.503475    0.011763
 H         -0.054126   -3.563856    0.897548
 H         -0.054805   -3.566231   -0.869832
 H          1.164878   -4.492098    0.014622
 C          5.650437    0.131920    0.005597
 C          6.010093   -2.277422    0.008143
 C          7.015803    0.378626    0.003847
 H          4.996961    0.998932    0.005236
 C          7.444174   -2.034294    0.006360
 N          5.697529   -3.569725    0.010103
 C          7.982829   -0.689393    0.004071
 C          7.556995    1.723448    0.001608
 N          8.179458   -3.137894    0.007003
 C          9.350539   -0.441388    0.002166
 C          8.991513    1.963356   -0.000386
 N          6.824323    2.828347    0.001158
 C          9.926626    0.850156   -0.000149
 H         10.002973   -1.309182    0.002462
 N          9.306402    3.255890   -0.002307
 C         11.342889    1.035231   -0.002146
 C         12.086282    2.219144   -0.004777
 S         12.446809   -0.342590   -0.001584
 C         13.481078    2.056086   -0.006331
 H         11.604508    3.187268   -0.005560
 C         13.865556    0.704045   -0.004898
 C         14.419285    3.233373   -0.009224
 C         15.160990    0.096360   -0.005725
 H         15.070314    3.240488    0.873345
 H         15.067788    3.238150   -0.893669
 H         13.850610    4.167214   -0.009649
 C         15.447525   -1.264812   -0.004013
 S         16.663008    1.031474   -0.009304
 C         16.823377   -1.521766   -0.005570
 H         14.703183   -2.051608   -0.001729
 C         17.656432   -0.416921   -0.008478
 C         19.091783   -0.382891   -0.010597
 S         20.093480   -1.831461   -0.009879
 C         19.922579    0.719504   -0.013446
 C         21.553946   -0.893637   -0.013382
 C         21.312411    0.452398   -0.015044
 H         22.071008    1.225324   -0.017286
 H         22.510406   -1.398246   -0.014003
 H        -21.626280   -0.123677    0.038360
 S        -14.656239   -3.920717    0.015710
 S        -13.874169    4.542032   -0.020324
 S          7.125982   -4.423867    0.009707
 S          7.880758    4.111463   -0.001657
 F         19.435826    1.976971   -0.014640
 F         17.315363   -2.775827   -0.004310
 F         -2.312182    2.442620    0.008924
 F         -4.418740   -2.307018    0.011327
       106
S1: Total Energy = -7765.15896756
 C        -16.690498   -0.679342   -0.000044
 C        -16.122981    0.586634   -0.000166
 C        -14.726911    0.831980    0.000005
 C        -13.779513   -0.215165    0.000314
 C        -14.320320   -1.551729    0.000457
 C        -15.754003   -1.788200    0.000280
 H        -16.764678    1.461883   -0.000421
 C        -14.187942    2.168348   -0.000136
 C        -12.386495    0.028282    0.000479
 C        -11.819082    1.298548    0.000340
 C        -12.754748    2.409138    0.000029
 H        -11.745074   -0.847526    0.000757
 N        -16.065852   -3.085478    0.000452
 N        -13.589645   -2.664240    0.000748
 N        -14.920012    3.280905   -0.000437
 N        -12.444062    3.705214   -0.000157
 C        -10.386116    1.493445    0.000482
 C         -9.656724    2.677527    0.000856
 S         -9.287618    0.122488    0.000173
 C         -8.257710    2.523278    0.000936
 H        -10.142139    3.643834    0.001078
 C         -7.868935    1.172184    0.000607
 C         -6.577930    0.573339    0.000530
 C         -6.290311   -0.796911    0.000526
 S         -5.079484    1.513633    0.000315
 C         -4.927108   -1.054101    0.000366
 H         -7.037673   -1.580577    0.000664
 C         -4.081444    0.061238    0.000240
 C        -18.132197   -0.878750   -0.000227
 C        -18.859821   -2.052972   -0.000376
 S        -19.235045    0.500470   -0.000299
 C        -20.276390   -1.872914   -0.000557
 H        -18.382601   -3.023822   -0.000358
 C        -20.616895   -0.544412   -0.000542
 C        -21.264146   -3.009253   -0.000742
 H        -22.294180   -2.640726   -0.000912
 H        -21.134105   -3.647813   -0.882956
 H        -21.134406   -3.647839    0.881498
 C         -7.326615    3.704647    0.001360
 H         -6.676892    3.713358    0.885021
 H         -6.677312    3.714297   -0.882609
 H         -7.899608    4.635567    0.001984
 C         -2.669953    0.080739    0.000085
 S         -1.671245   -1.372061    0.000039
 C         -1.824554    1.196321   -0.000046
 C         -0.172269   -0.430316   -0.000158
 C         -0.461695    0.941655   -0.000183
 C          1.116570   -1.026587   -0.000247
 H          0.285355    1.725419   -0.000306
 S          2.536559    0.024736   -0.000269
 C          1.508343   -2.378904   -0.000318
 C          3.636741   -1.346901   -0.000383
 C          2.904919   -2.533558   -0.000395
 C          0.577157   -3.560029   -0.000314
 C          5.066361   -1.154767   -0.000432
 H          3.393810   -3.497943   -0.000467
 H         -0.072324   -3.568723    0.883604
 H         -0.072575   -3.568539   -0.884048
 H          1.150052   -4.490968   -0.000489
 C          5.632710    0.123567   -0.000374
 C          5.997152   -2.267468   -0.000539
 C          7.016006    0.371897   -0.000407
 H          4.985349    0.995396   -0.000299
 C          7.431591   -2.026477   -0.000571
 N          5.680942   -3.562112   -0.000623
 C          7.967813   -0.687419   -0.000493
 C          7.552725    1.710603   -0.000353
 N          8.166083   -3.136539   -0.000676
 C          9.352460   -0.439519   -0.000506
 C          8.987460    1.949302   -0.000370
 N          6.819351    2.820985   -0.000278
 C          9.920307    0.837163   -0.000431
 H          9.999515   -1.311249   -0.000606
 N          9.303921    3.244254   -0.000311
 C         11.350849    1.031892   -0.000398
 C         12.085409    2.209959   -0.000664
 S         12.453325   -0.342301    0.000032
 C         13.488664    2.048224   -0.000563
 H         11.604719    3.178701   -0.000933
 C         13.871392    0.703060   -0.000208
 C         14.422538    3.229478   -0.000832
 C         15.170833    0.091741   -0.000035
 H         15.072683    3.239241    0.882539
 H         15.072806    3.238749   -0.884118
 H         13.850403    4.161388   -0.001125
 C         15.459028   -1.266345    0.000070
 S         16.669920    1.029427    0.000122
 C         16.837530   -1.521151    0.000277
 H         14.716432   -2.054848   -0.000017
 C         17.668040   -0.416586    0.000337
 C         19.104084   -0.378512    0.000539
 S         20.108504   -1.825347    0.000712
 C         19.933146    0.724646    0.000640
 C         21.568376   -0.885518    0.000901
 C         21.323780    0.459795    0.000844
 H         22.080755    1.234400    0.000940
 H         22.525605   -1.388628    0.001049
 H        -21.610517   -0.114819   -0.000655
 S        -14.648450   -3.929409    0.000797
 S        -13.865138    4.548225   -0.000510
 S          7.108121   -4.413345   -0.000733
 S          7.879956    4.096128   -0.000254
 F         19.444911    1.982253    0.000549
 F         17.330111   -2.775761    0.000395
 F         -2.326857    2.441097   -0.000054
 F         -4.427169   -2.299855    0.000357
