       106
S0: Total Energy = -8162.10081401
 C         17.139971   -0.643286   -0.037944
 C         16.566956    0.612857    0.037823
 C         15.163277    0.849032    0.043096
 C         14.224680   -0.193583   -0.026237
 C         14.773046   -1.523324   -0.105307
 C         16.207319   -1.753207   -0.111660
 H         17.201367    1.491061    0.100840
 C         14.615272    2.178959    0.122001
 C         12.821628    0.041989   -0.020807
 C         12.248755    1.299576    0.053870
 C         13.181135    2.410129    0.127659
 H         12.187904   -0.836937   -0.082707
 N         16.523655   -3.047126   -0.192137
 N         14.048298   -2.638424   -0.179585
 N         15.340181    3.294081    0.196176
 N         12.865143    3.703702    0.207369
 C         10.806235    1.493362    0.058853
 C         10.076146    2.665816    0.075972
 S          9.717766    0.116475    0.038327
 C          8.668413    2.499615    0.070072
 H         10.548426    3.638609    0.092282
 C          8.295184    1.156554    0.049502
 C          6.983677    0.559828    0.038799
 C          6.657775   -0.781491    0.023670
 S          5.484141    1.496679    0.042956
 C          5.277293   -1.057257    0.015975
 C          4.469901    0.056986    0.024559
 C         18.585745   -0.837877   -0.044752
 C         19.316373   -2.008083   -0.047534
 S         19.681369    0.545136   -0.046213
 C         20.733590   -1.822577   -0.047654
 H         18.844004   -2.981396   -0.049211
 C         21.068422   -0.493623   -0.046680
 C         21.725029   -2.955724   -0.048959
 H         22.753815   -2.583678   -0.048532
 H         21.597518   -3.595853    0.832516
 H         21.597407   -3.593735   -0.931951
 C          7.733452    3.680680    0.084982
 H          7.087654    3.706905   -0.801194
 H          7.080977    3.679194    0.966633
 H          8.306001    4.612196    0.101739
 C          3.037009    0.117925    0.020767
 S          2.023284   -1.322099    0.009443
 C          2.229340    1.232045    0.025533
 C          0.523428   -0.385713    0.011739
 C          0.848956    0.955797    0.020459
 C         -0.787769   -0.982897    0.005928
 S         -2.210774    0.056457    0.009098
 C         -1.160236   -2.326582    0.000409
 C         -3.298551   -1.321302    0.000681
 C         -2.567552   -2.493630   -0.001277
 C         -0.224559   -3.507159   -0.003591
 C         -4.740577   -1.128892   -0.005369
 H         -3.039270   -3.466827   -0.004270
 H          0.425686   -3.515282   -0.886832
 H          0.423424   -3.522922    0.881219
 H         -0.796596   -4.439120   -0.008304
 C         -5.314658    0.129506   -0.067549
 C         -5.672034   -2.241174    0.054885
 C         -6.717121    0.363903   -0.071867
 H         -4.681323    1.009307   -0.119884
 C         -7.106137   -2.011410    0.050385
 N         -5.355006   -3.535257    0.120705
 C         -7.655324   -0.680955   -0.014088
 C         -7.266518    1.694207   -0.138170
 N         -7.830167   -3.127639    0.111543
 C         -9.057805   -0.446604   -0.018679
 C         -8.700707    1.923833   -0.142891
 N         -6.542575    2.810431   -0.200189
 C         -9.632116    0.811630   -0.080192
 H         -9.690916   -1.326773    0.030010
 N         -9.017749    3.217928   -0.209179
 C        -11.074397    1.003781   -0.081601
 C        -11.806020    2.174136   -0.136626
 S        -12.161601   -0.372447   -0.005301
 C        -13.213649    2.006620   -0.119478
 H        -11.335016    3.146248   -0.189023
 C        -13.584809    0.665053   -0.049010
 C        -14.150161    3.185372   -0.173977
 C        -14.896284    0.066921   -0.009770
 H        -14.807955    3.149369   -1.050901
 H        -14.790555    3.244884    0.714503
 H        -13.578812    4.116108   -0.229831
 C        -15.220005   -1.272370    0.054721
 S        -16.396896    1.001062   -0.037844
 C        -16.601862   -1.548554    0.080883
 C        -17.408123   -0.436922    0.037860
 C        -18.845904   -0.376288    0.049256
 S        -19.862741   -1.813495    0.125064
 C        -19.650501    0.737016    0.006447
 C        -21.323722   -0.872661    0.096798
 C        -21.042622    0.457443    0.033183
 H        -22.292803   -1.348609    0.128319
 H         22.059950   -0.059277   -0.048024
 S         15.111694   -3.892003   -0.253051
 S         14.277911    4.548422    0.268728
 S         -6.766974   -4.381906    0.171252
 S         -7.605862    4.064593   -0.260717
 F        -19.180398    1.994539   -0.055673
 F        -17.068357   -2.805980    0.142897
 F          2.697491    2.490467    0.034618
 F          4.808821   -2.315506    0.001722
 F         -0.053979    1.949409    0.024414
 F          7.560316   -1.775497    0.016468
 F        -21.950672    1.441139   -0.002675
 F        -14.317014   -2.265442    0.091697
       106
T1: Total Energy = -8162.06176053
 C        -17.103531   -0.646548    0.020096
 C        -16.530515    0.611544   -0.023883
 C        -15.127353    0.847886   -0.019405
 C        -14.188611   -0.196467    0.027919
 C        -14.736770   -1.527864    0.074202
 C        -16.170848   -1.757903    0.070667
 H        -17.165046    1.490795   -0.067765
 C        -14.579410    2.179549   -0.065218
 C        -12.786325    0.039382    0.031382
 C        -12.213477    1.299085   -0.012298
 C        -13.145488    2.411295   -0.061684
 H        -12.152535   -0.840686    0.073784
 N        -16.487207   -3.053334    0.119788
 N        -14.012016   -2.644204    0.124593
 N        -15.304437    3.295860   -0.114671
 N        -12.829634    3.706321   -0.109681
 C        -10.771762    1.491929   -0.010253
 C        -10.041786    2.666315    0.000524
 S         -9.684106    0.115122   -0.019969
 C         -8.636024    2.501406    0.004145
 H        -10.515574    3.638451    0.006048
 C         -8.260912    1.156022   -0.005892
 C         -6.951970    0.563584   -0.008388
 C         -6.625666   -0.781946   -0.021134
 S         -5.453236    1.501660    0.004190
 C         -5.250163   -1.057780   -0.021402
 C         -4.438008    0.059672   -0.008642
 C        -18.548843   -0.841250    0.017105
 C        -19.279269   -2.011607   -0.007584
 S        -19.644831    0.541268    0.042941
 C        -20.696271   -1.826409   -0.009205
 H        -18.806663   -2.984652   -0.024434
 C        -21.031272   -0.497553    0.016225
 C        -21.687583   -2.959345   -0.035534
 H        -22.716386   -2.587429   -0.030803
 H        -21.557410   -3.580005   -0.930423
 H        -21.562382   -3.616413    0.833690
 C         -7.701412    3.682172    0.017627
 H         -7.055477    3.686473    0.904077
 H         -7.049379    3.701731   -0.864141
 H         -8.273919    4.613716    0.023651
 C         -3.013655    0.113836   -0.006168
 S         -2.002017   -1.330005   -0.024133
 C         -2.200363    1.233859    0.009157
 C         -0.496932   -0.391608   -0.010811
 C         -0.829507    0.961219    0.006836
 C          0.801380   -0.970315   -0.017801
 S          2.228342    0.072723    0.000049
 C          1.184283   -2.332361   -0.038525
 C          3.321496   -1.313502   -0.020267
 C          2.570163   -2.499927   -0.039783
 C          0.241293   -3.505122   -0.057946
 C          4.732431   -1.142592   -0.015802
 H          3.049278   -3.469125   -0.054601
 H         -0.407874   -3.524293    0.825729
 H         -0.406555   -3.496009   -0.942749
 H          0.807551   -4.440112   -0.072446
 C          5.319963    0.150415    0.008262
 C          5.661063   -2.262824   -0.035275
 C          6.685952    0.386272    0.013821
 H          4.673044    1.022097    0.023931
 C          7.096477   -2.031113   -0.030070
 N          5.338617   -3.552322   -0.059039
 C          7.646018   -0.690061   -0.005260
 C          7.237561    1.727189    0.039220
 N          7.823123   -3.139546   -0.049759
 C          9.013908   -0.453160   -0.000121
 C          8.673351    1.956240    0.044573
 N          6.513080    2.836699    0.059424
 C          9.600483    0.836089    0.024061
 H          9.659957   -1.325497   -0.015860
 N          8.997751    3.245907    0.069003
 C         11.017097    1.008906    0.027497
 C         11.767173    2.189550    0.050422
 S         12.107098   -0.377833    0.000349
 C         13.158550    2.017386    0.046769
 H         11.292418    3.160846    0.069535
 C         13.533741    0.660490    0.020121
 C         14.103251    3.189433    0.069633
 C         14.836408    0.070792    0.007716
 H         14.752764    3.176465    0.953199
 H         14.751139    3.212257   -0.814931
 H         13.538204    4.125181    0.089073
 C         15.161951   -1.276917   -0.017827
 S         16.342073    1.003612    0.022887
 C         16.538573   -1.553877   -0.025076
 C         17.348773   -0.439687   -0.005610
 C         18.783531   -0.385137   -0.007161
 S         19.797764   -1.826881   -0.036585
 C         19.591798    0.728508    0.012412
 C         21.259341   -0.888139   -0.021718
 C         20.982061    0.444897    0.004232
 H         22.227715   -1.366561   -0.032751
 H        -22.022926   -0.063537    0.022766
 S        -15.075473   -3.899348    0.165320
 S        -14.242690    4.552029   -0.154430
 S          6.760077   -4.417503   -0.073837
 S          7.578555    4.112265    0.084193
 F         19.123528    1.987056    0.037295
 F         17.006914   -2.810913   -0.049298
 F         -2.675632    2.488026    0.025024
 F         -4.779322   -2.313643   -0.033579
 F          0.075761    1.949000    0.020611
 F         -7.530703   -1.772315   -0.032956
 F         21.893193    1.425466    0.021114
 F         14.256720   -2.265851   -0.034996
       106
S1: Total Energy = -8162.04647763
 C        -17.091967   -0.646110    0.000110
 C        -16.515251    0.615939    0.000136
 C        -15.117702    0.851143    0.000110
 C        -14.177401   -0.202508    0.000055
 C        -14.728126   -1.535318    0.000028
 C        -16.163202   -1.761582    0.000058
 H        -17.150614    1.495768    0.000201
 C        -14.569287    2.183682    0.000136
 C        -12.783017    0.030591    0.000014
 C        -12.205987    1.297367    0.000034
 C        -13.134655    2.414491    0.000103
 H        -12.148087   -0.849874   -0.000043
 N        -16.484096   -3.056615    0.000035
 N        -14.005527   -2.652887   -0.000018
 N        -15.293740    3.301160    0.000172
 N        -12.815552    3.708428    0.000118
 C        -10.772447    1.481362   -0.000016
 C        -10.037236    2.662811   -0.000059
 S         -9.686276    0.102394   -0.000016
 C         -8.641542    2.500957   -0.000107
 H        -10.516289    3.632207   -0.000059
 C         -8.259410    1.145083   -0.000098
 C         -6.960657    0.566883   -0.000112
 C         -6.629681   -0.789780   -0.000106
 S         -5.459991    1.507448   -0.000098
 C         -5.264948   -1.063636   -0.000130
 C         -4.445083    0.061519   -0.000141
 C        -18.534614   -0.834918    0.000135
 C        -19.270648   -2.004195    0.000390
 S        -19.627620    0.552194   -0.000177
 C        -20.685573   -1.814096    0.000375
 H        -18.800274   -2.978375    0.000595
 C        -21.016424   -0.482873    0.000099
 C        -21.681607   -2.943138    0.000603
 H        -22.708897   -2.567093    0.000901
 H        -21.556537   -3.582528   -0.881703
 H        -21.556043   -3.582609    0.882776
 C         -7.705529    3.678675   -0.000164
 H         -7.056824    3.687770    0.884218
 H         -7.056792    3.687662   -0.884522
 H         -8.276234    4.610993   -0.000232
 C         -3.033553    0.108169   -0.000166
 S         -2.017819   -1.337595   -0.000130
 C         -2.213889    1.234036   -0.000183
 C         -0.516336   -0.395663   -0.000186
 C         -0.850030    0.963209   -0.000187
 C          0.779429   -0.970770   -0.000203
 S          2.208779    0.072220   -0.000161
 C          1.163944   -2.329494   -0.000232
 C          3.295616   -1.308992   -0.000149
 C          2.555953   -2.492839   -0.000200
 C          0.226578   -3.505838   -0.000283
 C          4.724560   -1.129974   -0.000109
 H          3.037859   -3.460681   -0.000207
 H         -0.422170   -3.513583    0.884140
 H         -0.422236   -3.513461   -0.884657
 H          0.796244   -4.438731   -0.000369
 C          5.302215    0.145239   -0.000115
 C          5.647542   -2.250299   -0.000064
 C          6.686433    0.381465   -0.000084
 H          4.662014    1.022234   -0.000155
 C          7.083520   -2.020484   -0.000037
 N          5.321809   -3.542255   -0.000044
 C          7.630451   -0.685677   -0.000051
 C          7.234542    1.716170   -0.000092
 N          7.809334   -3.136033   -0.000000
 C          9.016419   -0.449031   -0.000035
 C          8.670820    1.943343   -0.000061
 N          6.510083    2.831922   -0.000132
 C          9.594903    0.823730   -0.000032
 H          9.656285   -1.326032   -0.000018
 N          8.997102    3.235845   -0.000062
 C         11.026712    1.005980    0.000016
 C         11.767637    2.181174    0.000056
 S         12.114908   -0.376796    0.000059
 C         13.167435    2.010692    0.000093
 H         11.293732    3.153142    0.000055
 C         13.541483    0.660663    0.000072
 C         14.107543    3.187154    0.000141
 C         14.847236    0.067420    0.000085
 H         14.756735    3.195699    0.884193
 H         14.756782    3.195739   -0.883876
 H         13.538895    4.121102    0.000146
 C         15.174024   -1.277816    0.000068
 S         16.350598    1.002331    0.000118
 C         16.552361   -1.553201    0.000079
 C         17.361296   -0.439041    0.000102
 C         18.796171   -0.381680    0.000130
 S         19.812384   -1.822737    0.000140
 C         19.603677    0.732509    0.000157
 C         21.273894   -0.882642    0.000179
 C         20.994329    0.450035    0.000185
 H         22.242737   -1.360157    0.000196
 H        -22.007009   -0.046318    0.000025
 S        -15.072871   -3.910204   -0.000048
 S        -14.230433    4.560929    0.000229
 S          6.742004   -4.404438    0.000012
 S          7.580056    4.098573   -0.000099
 F         19.134664    1.991647    0.000158
 F         17.021489   -2.810817    0.000066
 F         -2.694965    2.483709   -0.000192
 F         -4.786706   -2.314441   -0.000137
 F          0.058534    1.946574   -0.000208
 F         -7.539388   -1.772148   -0.000099
 F         21.904427    1.432271    0.000213
 F         14.270370   -2.269944    0.000043
