       128
S0: Total Energy = -5710.57755778
 C        -18.414999    1.765301    0.084221
 C        -18.698701   -1.820939    0.105611
 C        -20.278365    0.355168    0.139583
 C        -16.834350   -0.410869    0.053409
 C        -19.132386   -0.443763    0.110700
 C        -17.980840    0.388604    0.077547
 C        -21.647223   -0.089960    0.178365
 C        -15.468905    0.034112    0.020852
 C        -22.045119   -1.420848    0.193003
 C        -15.070128    1.366757   -0.007636
 H        -21.325783   -2.233288    0.175496
 H        -15.789591    2.179299   -0.014976
 C        -23.449878   -1.590195    0.232200
 C        -13.674174    1.538435   -0.033991
 H        -23.938493   -2.557915    0.248390
 H        -13.201731    2.512811   -0.082753
 C        -24.132062   -0.400098    0.247704
 C        -12.957394    0.353295   -0.027676
 C        -20.640243    2.894859    0.142241
 C        -16.475126   -2.951974    0.048745
 H        -19.930111    3.722980    0.120907
 H        -17.186503   -3.779294    0.059588
 H        -21.242713    2.965647    1.052971
 H        -15.866514   -3.017211   -0.858261
 N        -19.845393    1.678391    0.123959
 N        -17.268988   -1.734914    0.069768
 O        -17.817104    2.842070    0.062301
 O        -19.297438   -2.897179    0.124263
 S        -23.066164    0.958207    0.214501
 S        -14.050987   -1.011136    0.021739
 H        -15.830734   -3.025899    0.930100
 H        -21.291158    2.961152   -0.734857
 C        -11.508975    0.166977   -0.048177
 C        -10.646881    1.223809    0.309275
 C        -10.917641   -1.056907   -0.421491
 C         -9.269506    1.063909    0.292501
 H        -11.062153    2.173129    0.631719
 C         -9.540347   -1.216979   -0.437959
 H        -11.544201   -1.888755   -0.730813
 C         -8.678374   -0.160590   -0.079054
 H         -8.642748    1.895577    0.601923
 H         -9.124851   -2.166205   -0.760412
 H        -25.201607   -0.238440    0.276615
 C         -7.230384   -0.349799   -0.092828
 C         -6.517156   -1.536995   -0.067337
 S         -6.132764    1.010861   -0.153868
 C         -5.120862   -1.369806   -0.086344
 H         -6.993115   -2.509084   -0.008145
 C         -4.717684   -0.038528   -0.129605
 H         -4.403782   -2.184079   -0.060330
 C         -3.351105    0.401236   -0.151845
 C         -2.206303   -0.402561   -0.132257
 N         -2.911043    1.722657   -0.196137
 C         -1.777605   -1.780933   -0.086114
 C         -1.052370    0.424226   -0.163007
 C         -1.481014    1.802687   -0.205710
 C         -3.700679    2.942112   -0.235695
 N         -0.347659   -1.700771   -0.090951
 O         -2.381442   -2.854029   -0.049558
 C          0.092464   -0.379380   -0.136261
 O         -0.877173    2.875688   -0.244700
 H         -2.986350    3.766191   -0.270453
 H         -4.321356    3.046788    0.659403
 H         -4.332702    2.981073   -1.128078
 C          0.441903   -2.920390   -0.054889
 C          1.459105    0.060292   -0.149600
 H         -0.272494   -3.744859   -0.033493
 H          1.070622   -3.016596   -0.945251
 H          1.065878   -2.967450    0.842796
 C          1.863077    1.390813   -0.207094
 S          2.873477   -0.988309   -0.086087
 H          1.146568    2.204614   -0.254541
 C          3.259497    1.557900   -0.206317
 C          3.972245    0.371384   -0.149862
 H          3.736122    2.529209   -0.272269
 C          5.420056    0.181280   -0.132436
 C          6.276641    1.245107    0.217486
 C          6.016558   -1.052943   -0.460949
 C          7.653565    1.081977    0.236123
 H          5.856784    2.203175    0.506362
 C          7.393481   -1.216049   -0.442378
 H          5.395005   -1.891124   -0.763235
 C          8.250002   -0.152644   -0.090972
 H          8.275171    1.920012    0.538627
 H          7.813558   -2.174050   -0.731178
 C          9.697528   -0.344398   -0.066984
 C         10.408100   -1.531326    0.001415
 S         10.798865    1.013347   -0.131640
 C         11.804953   -1.366075    0.012241
 H          9.929587   -2.501540    0.070382
 C         12.211139   -0.036692   -0.050377
 H         12.519818   -2.180383    0.073533
 C         13.578722    0.402064   -0.047813
 C         14.721574   -0.400957    0.019454
 N         14.021039    1.722218   -0.110013
 C         15.148063   -1.777889    0.106446
 C         15.877051    0.424956    0.000798
 C         15.451175    1.801750   -0.083286
 C         13.234207    2.940774   -0.198618
 N         16.577959   -1.698048    0.137125
 O         14.542890   -2.849975    0.150306
 C         17.020099   -0.378192    0.074429
 O         16.056293    2.874026   -0.129214
 H         13.950427    3.763185   -0.235013
 H         12.591119    3.067544    0.677628
 H         12.624918    2.959044   -1.107346
 C         17.365286   -2.916573    0.223226
 C         18.387756    0.060060    0.086027
 H         16.649893   -3.740081    0.248372
 H         18.015412   -3.035604   -0.648798
 H         17.967578   -2.940702    1.136456
 C         18.794373    1.388270    0.013792
 S         19.800263   -0.988065    0.199766
 H         18.080244    2.201741   -0.065316
 C         20.192282    1.553831    0.041856
 C         20.899934    0.368698    0.134258
 H         20.674793    2.521754   -0.032819
 C         22.352012    0.176785    0.186850
 C         23.184533    1.218929    0.640290
 C         22.953228   -1.032610   -0.210436
 C         24.566771    1.057191    0.685074
 H         22.742112    2.150841    0.978612
 C         24.335845   -1.193368   -0.156169
 H         22.336001   -1.844923   -0.584548
 C         25.149886   -0.149348    0.288915
 H         25.189880    1.873090    1.040751
 H         24.778390   -2.134274   -0.471101
 H         26.228136   -0.274911    0.328508
       128
T1: Total Energy = -5710.54490996
 C         18.422014   -1.753585   -0.219449
 C         18.703003    1.790184    0.331152
 C         20.285389   -0.363076    0.020521
 C         16.838214    0.400089    0.090211
 C         19.137568    0.427813    0.128020
 C         17.987022   -0.392640   -0.014296
 C         21.653941    0.075245    0.106470
 C         15.475503   -0.036768    0.001769
 C         22.051662    1.390141    0.314254
 C         15.076993   -1.356002   -0.203222
 H         21.331807    2.194311    0.427840
 H         15.797805   -2.159339   -0.317408
 C         23.456731    1.555076    0.359541
 C         13.684149   -1.524424   -0.255565
 H         23.945061    2.510815    0.513294
 H         13.215789   -2.485952   -0.430934
 C         24.139793    0.377722    0.188460
 C         12.961457   -0.349962   -0.096680
 C         20.647817   -2.873195   -0.365664
 C         16.479807    2.912197    0.476210
 H         19.937593   -3.689299   -0.507499
 H         17.190922    3.726826    0.622337
 H         21.259922   -3.083053    0.516803
 H         15.871099    3.125658   -0.407737
 N         19.852610   -1.669914   -0.187707
 N         17.273975    1.708242    0.297903
 O         17.824409   -2.817213   -0.392089
 O         19.302438    2.852462    0.503127
 S         23.073967   -0.963156   -0.032741
 S         14.055451    0.998416    0.134275
 H         15.835450    2.839864    1.357630
 H         21.289404   -2.801798   -1.249206
 C         11.518156   -0.165787   -0.102757
 C         10.650132   -1.273593    0.018688
 C         10.923073    1.109001   -0.229611
 C          9.275709   -1.115559    0.007564
 H         11.061156   -2.270351    0.140866
 C          9.549046    1.268911   -0.237465
 H         11.549517    1.989703   -0.340475
 C          8.677199    0.159940   -0.121326
 H          8.651810   -1.999370    0.106595
 H          9.142660    2.269387   -0.340003
 H         25.209696    0.216183    0.178836
 C          7.241124    0.338497   -0.134547
 C          6.509335    1.518813   -0.285587
 S          6.141477   -1.023004    0.052433
 C          5.127452    1.355372   -0.255872
 H          6.977728    2.486897   -0.419160
 C          4.713855    0.018305   -0.076342
 H          4.409977    2.162192   -0.359866
 C          3.377470   -0.411480   -0.011669
 C          2.193048    0.402347   -0.117870
 N          2.910715   -1.711801    0.167561
 C          1.765348    1.783057   -0.305518
 C          1.066576   -0.394520   -0.005175
 C          1.494370   -1.775266    0.181398
 C          3.689729   -2.929001    0.335149
 N          0.349186    1.719685   -0.292063
 O          2.390762    2.834941   -0.451706
 C         -0.117932    0.419439   -0.111548
 O          0.869263   -2.827433    0.326901
 H          2.971375   -3.740840    0.455805
 H          4.321530   -2.874555    1.226383
 H          4.309166   -3.127019   -0.544362
 C         -0.429765    2.936748   -0.460900
 C         -1.453908   -0.009712   -0.044042
 H          0.288608    3.748201   -0.584033
 H         -1.062735    2.880674   -1.351185
 H         -1.048029    3.136669    0.419022
 C         -1.867630   -1.346651    0.139465
 S         -2.881714    1.031966   -0.169607
 H         -1.150074   -2.153727    0.240798
 C         -3.249019   -1.509508    0.174400
 C         -3.981401   -0.329118    0.022569
 H         -3.717327   -2.477861    0.306333
 C         -5.416719   -0.150510    0.013589
 C         -6.287977   -1.249812    0.204988
 C         -6.016856    1.115783   -0.183713
 C         -7.661627   -1.089366    0.202747
 H         -5.880817   -2.242055    0.367099
 C         -7.390962    1.274116   -0.188496
 H         -5.394140    1.991167   -0.345371
 C         -8.258741    0.176305    0.007728
 H         -8.286206   -1.962051    0.372001
 H         -7.802014    2.262878   -0.363290
 C         -9.701253    0.360487    0.008178
 C        -10.423066    1.545746    0.060148
 S        -10.798913   -1.003546   -0.063392
 C        -11.815911    1.374337    0.050823
 H         -9.953632    2.520406    0.125336
 C        -12.217368    0.041070   -0.010775
 H        -12.535303    2.185811    0.094609
 C        -13.580104   -0.401439   -0.027494
 C        -14.728669    0.398764    0.015518
 N        -14.018800   -1.723707   -0.088002
 C        -15.161159    1.774810    0.085803
 C        -15.879673   -0.430619   -0.016713
 C        -15.447706   -1.807164   -0.084547
 C        -13.226909   -2.940427   -0.154061
 N        -16.590829    1.690437    0.092799
 O        -14.560117    2.849488    0.132722
 C        -17.027851    0.368924    0.032090
 O        -16.049765   -2.881142   -0.133416
 H        -13.939786   -3.765499   -0.195174
 H        -12.597494   -3.057814    0.733332
 H        -12.603030   -2.963948   -1.052710
 C        -17.383479    2.906845    0.156354
 C        -18.393232   -0.074333    0.024218
 H        -16.671391    3.733030    0.186598
 H        -18.019679    3.016624   -0.727096
 H        -18.000804    2.936024    1.059360
 C        -18.794294   -1.404756   -0.044858
 S        -19.811348    0.969486    0.107163
 H        -18.076027   -2.216099   -0.106210
 C        -20.191698   -1.575047   -0.038360
 C        -20.905276   -0.391893    0.033711
 H        -20.669291   -2.545379   -0.113603
 C        -22.358478   -0.204762    0.061038
 C        -23.195480   -1.248199    0.503378
 C        -22.956918    1.001568   -0.349821
 C        -24.578737   -1.090660    0.524524
 H        -22.756145   -2.177888    0.851650
 C        -24.340717    1.158155   -0.319196
 H        -22.336113    1.814822   -0.715881
 C        -25.158947    0.112911    0.115227
 H        -25.205159   -1.907552    0.872028
 H        -24.780773    2.096800   -0.644221
 H        -26.238089    0.235213    0.136440
       128
S1: Total Energy = -5710.52221118
 C         18.400125   -1.765630    0.157713
 C         18.687140    1.819269    0.082721
 C         20.267954   -0.361206    0.185877
 C         16.816601    0.415817    0.056952
 C         19.117621    0.439141    0.127929
 C         17.969284   -0.388334    0.110403
 C         21.633501    0.083006    0.220737
 C         15.461412   -0.023270    0.028742
 C         22.036083    1.414472    0.199771
 C         15.056761   -1.363324    0.043746
 H         21.318747    2.227526    0.154346
 H         15.777048   -2.174528    0.077452
 C         23.439984    1.580954    0.243262
 C         13.671198   -1.536368    0.014252
 H         23.930913    2.547682    0.234792
 H         13.205355   -2.514625    0.022881
 C         24.120436    0.390237    0.297596
 C         12.940622   -0.347759   -0.024057
 C         20.620681   -2.899517    0.260453
 C         16.472645    2.958064   -0.018419
 H         19.908259   -3.725920    0.257870
 H         17.186701    3.783078   -0.024295
 H         21.217567   -2.946235    1.176412
 H         15.870519    3.001424   -0.930998
 N         19.829911   -1.681711    0.203494
 N         17.261441    1.738857    0.039901
 O         17.799249   -2.842151    0.162597
 O         19.293285    2.891802    0.076808
 S         23.051626   -0.967014    0.296499
 S         14.040656    1.022006   -0.024613
 H         15.822160    3.056618    0.855959
 H         21.276941   -2.991631   -0.610347
 C         11.508313   -0.168815   -0.056762
 C         10.633751   -1.284993   -0.067166
 C         10.906859    1.114716   -0.077767
 C          9.263412   -1.126979   -0.093944
 H         11.040901   -2.290368   -0.053915
 C          9.536770    1.274004   -0.104384
 H         11.531087    2.003882   -0.071492
 C          8.660627    0.157374   -0.112214
 H          8.639456   -2.016327   -0.099476
 H          9.130473    2.279628   -0.119284
 H         25.189457    0.227806    0.338238
 C          7.232394    0.335960   -0.135184
 C          6.500748    1.529330   -0.141048
 S          6.128914   -1.033261   -0.156324
 C          5.119545    1.362923   -0.159659
 H          6.970141    2.505882   -0.129708
 C          4.706662    0.017932   -0.170013
 H          4.400939    2.176216   -0.164103
 C          3.359982   -0.413564   -0.184964
 C          2.197432    0.400733   -0.184189
 N          2.902047   -1.730914   -0.199870
 C          1.774332    1.787546   -0.168287
 C          1.054803   -0.412360   -0.196215
 C          1.478431   -1.799252   -0.207560
 C          3.683084   -2.956886   -0.211636
 N          0.351068    1.719504   -0.170119
 O          2.391279    2.854335   -0.156330
 C         -0.107650    0.401874   -0.186168
 O          0.861958   -2.866134   -0.221783
 H          2.964452   -3.777527   -0.230428
 H          4.301239   -3.044795    0.686880
 H          4.317025   -3.016903   -1.101332
 C         -0.429422    2.945765   -0.160627
 C         -1.453968   -0.029328   -0.188234
 H          0.289793    3.766128   -0.157741
 H         -1.058007    3.025157   -1.052636
 H         -1.052831    3.015183    0.735889
 C         -1.867588   -1.374999   -0.210346
 S         -2.875332    1.022266   -0.159050
 H         -1.148916   -2.187985   -0.228792
 C         -3.247811   -1.541299   -0.203619
 C         -3.980348   -0.347242   -0.175295
 H         -3.717417   -2.517729   -0.217207
 C         -5.405941   -0.169082   -0.157046
 C         -6.284019   -1.285970   -0.178225
 C         -6.008899    1.116192   -0.115071
 C         -7.652899   -1.126459   -0.156559
 H         -5.877831   -2.291116   -0.212011
 C         -7.378028    1.274648   -0.093114
 H         -5.384008    2.004638   -0.097985
 C         -8.254534    0.158142   -0.111760
 H         -8.277964   -2.014909   -0.173239
 H         -7.784550    2.279774   -0.060599
 C         -9.683050    0.337268   -0.083729
 C        -10.413217    1.529131   -0.027912
 S        -10.786187   -1.030619   -0.114675
 C        -11.796033    1.359350   -0.008807
 H         -9.944682    2.505583    0.000369
 C        -12.205526    0.017751   -0.049887
 H        -12.514462    2.171586    0.035466
 C        -13.557625   -0.416101   -0.036295
 C        -14.712291    0.393810    0.025835
 N        -14.009983   -1.734876   -0.078466
 C        -15.137428    1.774635    0.095056
 C        -15.859560   -0.425211    0.023724
 C        -15.435163   -1.808146   -0.044214
 C        -13.226841   -2.957328   -0.154686
 N        -16.566142    1.698458    0.133101
 O        -14.529389    2.845607    0.120578
 C        -17.012851    0.381799    0.090945
 O        -16.048228   -2.875655   -0.072973
 H        -13.944391   -3.778857   -0.178374
 H        -12.581200   -3.073581    0.720950
 H        -12.621067   -2.986793   -1.065255
 C        -17.350753    2.920097    0.205736
 C        -18.371733   -0.056789    0.113693
 H        -16.634391    3.742905    0.217333
 H        -18.003595    3.027408   -0.665669
 H        -17.949480    2.956048    1.120806
 C        -18.780277   -1.390661    0.062900
 S        -19.787384    0.991993    0.216886
 H        -18.065804   -2.204536   -0.007007
 C        -20.173711   -1.555777    0.099081
 C        -20.885941   -0.368171    0.176367
 H        -20.654140   -2.525778    0.041590
 C        -22.335123   -0.179342    0.228995
 C        -23.171616   -1.237496    0.640258
 C        -22.935883    1.044959   -0.125555
 C        -24.553204   -1.076032    0.686484
 H        -22.733109   -2.182482    0.945173
 C        -24.318029    1.204034   -0.071147
 H        -22.318151    1.871288   -0.466598
 C        -25.134520    0.144775    0.332515
 H        -25.178044   -1.904005    1.009582
 H        -24.758928    2.156070   -0.353047
 H        -26.212792    0.269444    0.372633
