       134
S0: Total Energy = -7985.34364532
 C        -13.665534    1.155950    0.234114
 S        -12.331391    0.029925    0.029837
 C        -13.195939    2.457704    0.364190
 C        -11.136435    1.312533    0.156303
 C        -11.777620    2.524735    0.318707
 C        -14.041972    3.690793    0.555088
 C         -9.713838    1.015709    0.088232
 H        -11.233223    3.454464    0.415239
 H        -14.550070    3.985354   -0.371763
 H        -14.814128    3.545408    1.317827
 H        -13.415792    4.532441    0.865422
 C         -9.232762   -0.281913    0.062041
 C         -8.705738    2.059430    0.039498
 C         -7.852326   -0.616564   -0.012300
 H         -9.927503   -1.114541    0.106114
 C         -7.293470    1.727490   -0.034581
 N         -8.929317    3.374468    0.051850
 C         -6.842289    0.359400   -0.061214
 C         -7.401043   -1.984693   -0.039628
 N         -6.492174    2.790719   -0.074925
 C         -5.461808    0.024816   -0.134813
 C         -5.988716   -2.316530   -0.113257
 N         -8.202193   -3.048052   -0.000246
 C         -4.980778   -1.272755   -0.160301
 H         -4.767037    0.857413   -0.178988
 N         -5.764855   -3.631498   -0.126258
 C         -3.557926   -1.569358   -0.225057
 C         -2.916066   -2.779781   -0.397581
 S         -2.363961   -0.288297   -0.078101
 C         -1.497555   -2.712328   -0.435048
 H         -3.460003   -3.708410   -0.506647
 C         -1.028528   -1.412031   -0.287661
 C         -0.650652   -3.943334   -0.634966
 H          0.121405   -3.791912   -1.396703
 H         -0.142442   -4.244384    0.289727
 H         -1.276184   -4.783074   -0.951604
 S         -7.462139    4.119278   -0.023015
 S         -7.232076   -4.376480   -0.052570
 C        -15.012272    0.622717    0.246729
 S        -16.425026    1.625596   -0.125756
 C        -15.392451   -0.677410    0.485975
 C        -17.508160    0.260438    0.056711
 C        -16.799123   -0.907767    0.383509
 H        -14.680335   -1.451769    0.748123
 C        -18.921364    0.291932   -0.088401
 C        -17.506170   -2.137766    0.582261
 C        -19.605367   -0.946745    0.111653
 C        -19.652607    1.471411   -0.415860
 C        -18.873747   -2.125955    0.441546
 C        -21.018854   -0.916839   -0.035841
 H        -19.103576    2.398698   -0.561516
 C        -21.021287    1.481615   -0.553825
 H        -19.423903   -3.052420    0.587874
 C        -21.727529    0.252538   -0.358862
 S        -22.109495   -2.280915    0.150823
 C        -23.145151    0.020876   -0.449379
 C        -23.490215   -1.271281   -0.204177
 H        -23.868666    0.792137   -0.687861
 H        -24.479632   -1.709291   -0.207603
 C          0.317828   -0.878650   -0.285121
 S          1.730377   -1.888812    0.068006
 C          0.697777    0.427177   -0.493866
 C          2.812913   -0.518707   -0.079297
 C          2.103211    0.656440   -0.381599
 H         -0.014191    1.206888   -0.739949
 C          4.224380   -0.551347    0.071632
 C          2.809007    1.891958   -0.548349
 C          4.907650    0.693309   -0.096211
 C          4.956455   -1.737221    0.377088
 C          4.175819    1.879266   -0.401909
 C          6.318971    0.661019    0.055746
 C          6.323272   -1.749616    0.524042
 H          4.407757   -2.668095    0.498779
 H          4.724730    2.809954   -0.524019
 S          7.400740    2.031897   -0.088928
 C          7.028909   -0.513843    0.358453
 C          8.813267    1.022707    0.266720
 C          8.434112   -0.283634    0.473378
 C         10.158781    1.558489    0.273870
 H          9.146284   -1.062833    0.720507
 S         11.497145    0.438680    0.061522
 C         10.624588    2.858889    0.428933
 C         12.687930    1.721564    0.217749
 C         12.043143    2.929523    0.395062
 C          9.774954    4.087260    0.633602
 C         14.112152    1.428966    0.155260
 H         12.584818    3.858706    0.510275
 H          9.269532    4.393413   -0.290940
 H          9.000458    3.929851    1.391619
 H         10.398073    4.925961    0.957694
 C         14.596900    0.133434    0.120934
 C         15.117234    2.476070    0.121063
 C         15.979449   -0.196249    0.050569
 H         13.904625   -0.701720    0.155174
 C         16.530831    2.148858    0.051387
 N         14.889577    3.790281    0.143965
 C         16.985995    0.782602    0.014522
 C         16.435838   -1.562191    0.015557
 N         17.329141    3.214939    0.024842
 S         16.355011    4.539876    0.083478
 C         18.369072    0.452414   -0.053947
 C         17.850035   -1.888246   -0.053615
 N         15.637784   -2.628340    0.042485
 C         18.855057   -0.841464   -0.088865
 H         19.060566    1.288410   -0.081164
 N         18.077491   -3.202950   -0.076707
 S         16.612764   -3.952849   -0.015918
 C         20.283116   -1.133026   -0.155042
 C         20.930148   -2.347442   -0.252445
 S         21.471416    0.170544   -0.117471
 C         22.355916   -2.257722   -0.300357
 H         20.391501   -3.284992   -0.288926
 C         22.782008   -0.956848   -0.236428
 C         23.265749   -3.452570   -0.407741
 H         23.800709   -0.591044   -0.250930
 H         24.317263   -3.151095   -0.426235
 H         23.125722   -4.135637    0.438940
 H         23.063214   -4.025302   -1.321010
 C        -21.770705    2.743498   -0.899956
 H        -22.333089    2.631791   -1.835684
 H        -22.496764    3.005213   -0.119726
 H        -21.085585    3.587932   -1.018345
 C        -16.756704   -3.397597    0.933791
 H        -16.025751   -3.658909    0.157991
 H        -16.199784   -3.284050    1.872663
 H        -17.441347   -4.242765    1.049232
 C          2.058793    3.158315   -0.873481
 H          1.506286    3.065528   -1.817184
 H          1.323997    3.399860   -0.094957
 H          2.742280    4.007190   -0.966156
 C          7.073603   -3.015932    0.849082
 H          7.809117   -3.256793    0.071028
 H          7.625321   -2.923479    1.793283
 H          6.390319   -3.865083    0.940743
       134
T1: Total Energy = -7985.30449648
 C        -13.608253    1.144593   -0.262548
 S        -12.268593    0.009881   -0.101371
 C        -13.127206    2.461118   -0.386080
 C        -11.068320    1.302010   -0.198385
 C        -11.726574    2.528998   -0.348085
 C        -13.975237    3.695689   -0.542904
 C         -9.672759    1.025298   -0.124600
 H        -11.176401    3.456541   -0.427643
 H        -14.593125    3.655441   -1.447652
 H        -14.650846    3.838620    0.308591
 H        -13.337681    4.581075   -0.614505
 C         -9.189703   -0.301074    0.020085
 C         -8.661692    2.068390   -0.190780
 C         -7.847590   -0.639021    0.099184
 H         -9.903168   -1.117619    0.073180
 C         -7.249068    1.732884   -0.108572
 N         -8.884622    3.372448   -0.324259
 C         -6.806295    0.360181    0.039680
 C         -7.404821   -2.011797    0.245929
 N         -6.439038    2.779285   -0.180930
 C         -5.464471    0.022769    0.120298
 C         -5.992167   -2.347405    0.328512
 N         -8.214786   -3.058423    0.316549
 C         -4.981162   -1.303928    0.265473
 H         -4.751145    0.839443    0.067580
 N         -5.769116   -3.651495    0.460399
 C         -3.586321   -1.579342    0.343605
 C         -2.926743   -2.807026    0.488451
 S         -2.387446   -0.284849    0.261021
 C         -1.527134   -2.737581    0.533960
 H         -3.476347   -3.735618    0.559375
 C         -1.046814   -1.418822    0.422912
 C         -0.677623   -3.971500    0.686946
 H         -0.000438   -4.109693   -0.164125
 H         -0.061281   -3.934068    1.592852
 H         -1.313889   -4.858176    0.753519
 S         -7.400756    4.127745   -0.344897
 S         -7.253047   -4.407093    0.479109
 C        -14.945189    0.627241   -0.247885
 S        -16.379752    1.661502   -0.412090
 C        -15.324367   -0.697474   -0.109955
 C        -17.453091    0.282861   -0.290210
 C        -16.729547   -0.914423   -0.130534
 H        -14.603910   -1.499232    0.005179
 C        -18.870619    0.326912   -0.340380
 C        -17.429653   -2.160622   -0.010011
 C        -19.547194   -0.926762   -0.217892
 C        -19.614944    1.532784   -0.502496
 C        -18.802198   -2.133917   -0.056180
 C        -20.965653   -0.883789   -0.266922
 H        -19.071593    2.470224   -0.593539
 C        -20.989419    1.555142   -0.548157
 H        -19.347954   -3.069975    0.033994
 C        -21.687742    0.312049   -0.426589
 S        -22.049472   -2.260320   -0.142306
 C        -23.108669    0.089304   -0.444645
 C        -23.443631   -1.221517   -0.304424
 H        -23.842232    0.879337   -0.557545
 H        -24.433734   -1.657575   -0.284670
 C          0.288118   -0.899494    0.423373
 S          1.724945   -1.933144    0.572046
 C          0.664665    0.429583    0.313331
 C          2.795159   -0.549038    0.482935
 C          2.067841    0.649847    0.344475
 H         -0.057715    1.231557    0.213036
 C          4.210925   -0.589175    0.540411
 C          2.764266    1.900962    0.254531
 C          4.884529    0.669932    0.449116
 C          4.959326   -1.796217    0.682608
 C          4.136274    1.878315    0.308608
 C          6.300664    0.629792    0.504044
 C          6.332448   -1.816321    0.737647
 H          4.418251   -2.736872    0.750600
 H          4.678891    2.818125    0.241632
 S          7.373383    2.013132    0.421709
 C          7.027569   -0.566745    0.644381
 C          8.803720    0.980268    0.582695
 C          8.436250   -0.342715    0.686665
 C         10.147168    1.517769    0.553330
 H          9.161679   -1.139071    0.808402
 S         11.468923    0.424502    0.167714
 C         10.623397    2.802987    0.787803
 C         12.667910    1.694895    0.356072
 C         12.036901    2.881555    0.673306
 C          9.789846    4.007019    1.145077
 C         14.085018    1.415192    0.177995
 H         12.585845    3.800065    0.831486
 H          9.221480    4.380537    0.284065
 H          9.069970    3.787529    1.940663
 H         10.433849    4.821564    1.489057
 C         14.564982    0.129460    0.001926
 C         15.086585    2.466044    0.168008
 C         15.939292   -0.186720   -0.187946
 H         13.875754   -0.708872    0.010130
 C         16.491992    2.152402   -0.022782
 N         14.862431    3.772376    0.318672
 C         16.942119    0.796448   -0.207491
 C         16.390640   -1.542510   -0.370060
 N         17.288025    3.220416   -0.010379
 S         16.321563    4.530983    0.226067
 C         18.316877    0.479961   -0.397524
 C         17.796385   -1.854697   -0.562856
 N         15.595057   -2.610817   -0.379922
 C         18.797816   -0.803833   -0.577495
 H         19.005839    1.318446   -0.398289
 N         18.020252   -3.161565   -0.713417
 S         16.562441   -3.920872   -0.617091
 C         20.217205   -1.081501   -0.768601
 C         20.856865   -2.283285   -0.991725
 S         21.403242    0.224291   -0.735937
 C         22.274938   -2.182060   -1.138803
 H         20.318219   -3.219793   -1.048881
 C         22.702813   -0.885286   -1.023019
 C         23.175858   -3.362025   -1.389726
 H         23.717120   -0.513034   -1.089539
 H         24.222353   -3.053225   -1.469366
 H         23.102099   -4.097419   -0.579281
 H         22.904965   -3.877926   -2.318985
 C        -21.753306    2.843539   -0.720871
 H        -22.375776    2.821763   -1.624358
 H        -22.425587    3.027233    0.126799
 H        -21.073136    3.696301   -0.801515
 C        -16.665420   -3.448112    0.161572
 H        -15.993038   -3.631101   -0.686257
 H        -16.043037   -3.427217    1.065218
 H        -17.345796   -4.300669    0.241327
 C          1.996058    3.188747    0.105284
 H          1.379488    3.184097   -0.802535
 H          1.317644    3.350988    0.952485
 H          2.673380    4.045484    0.047657
 C          7.100837   -3.103833    0.891190
 H          7.783750   -3.265583    0.047585
 H          7.712837   -3.098221    1.802123
 H          6.424113   -3.961305    0.945851
       134
S1: Total Energy = -7985.28753717
 C        -13.638103    1.138137   -0.065937
 S        -12.290174    0.003943   -0.012616
 C        -13.166651    2.453650   -0.150234
 C        -11.100224    1.299835   -0.101102
 C        -11.756775    2.522772   -0.166768
 C        -14.017110    3.695085   -0.217072
 C         -9.685640    1.013531   -0.100038
 H        -11.212310    3.455264   -0.226407
 H        -14.662242    3.703088   -1.103812
 H        -14.667157    3.795161    0.660203
 H        -13.380541    4.583113   -0.262083
 C         -9.204291   -0.299672   -0.071476
 C         -8.685024    2.064065   -0.128184
 C         -7.841000   -0.638663   -0.068839
 H         -9.908521   -1.125810   -0.053654
 C         -7.269266    1.732508   -0.123126
 N         -8.920865    3.375784   -0.157048
 C         -6.823408    0.362121   -0.093381
 C         -7.394874   -2.009606   -0.044175
 N         -6.462940    2.791987   -0.148251
 C         -5.460945    0.022766   -0.090781
 C         -5.979301   -2.342334   -0.044833
 N         -8.201565   -3.068954   -0.019679
 C         -4.980675   -1.291195   -0.067162
 H         -4.756754    0.849093   -0.112135
 N         -5.742900   -3.654010   -0.020910
 C         -3.565775   -1.574857   -0.065058
 C         -2.909840   -2.803772   -0.079546
 S         -2.379271   -0.276087   -0.042330
 C         -1.504088   -2.735674   -0.075661
 H         -3.458257   -3.735603   -0.093321
 C         -1.028861   -1.413231   -0.054701
 C         -0.652262   -3.976346   -0.092032
 H         -0.005740   -4.016916   -0.976906
 H         -0.003649   -4.038935    0.789961
 H         -1.286666   -4.866636   -0.102518
 S         -7.440825    4.136874   -0.176973
 S         -7.225164   -4.414898    0.000923
 C        -14.974558    0.613263   -0.015393
 S        -16.413813    1.649835   -0.101795
 C        -15.348136   -0.714095    0.101017
 C        -17.483448    0.267892    0.021975
 C        -16.752950   -0.932221    0.124666
 H        -14.623476   -1.517275    0.170914
 C        -18.900732    0.311102    0.023758
 C        -17.448363   -2.181794    0.238524
 C        -19.572939   -0.946594    0.138262
 C        -19.651606    1.519925   -0.081058
 C        -18.821838   -2.156250    0.242328
 C        -20.991654   -0.903834    0.141060
 H        -19.111956    2.459937   -0.167289
 C        -21.026605    1.541754   -0.077531
 H        -19.363407   -3.095220    0.327938
 C        -21.719913    0.294946    0.037322
 S        -22.070313   -2.284699    0.269708
 C        -23.140015    0.070779    0.064159
 C        -23.469615   -1.243824    0.183300
 H        -23.877511    0.862425   -0.002712
 H        -24.458368   -1.681179    0.227340
 C          0.299786   -0.892720   -0.038519
 S          1.741141   -1.928005   -0.062847
 C          0.672069    0.448835   -0.001258
 C          2.806693   -0.535243   -0.021149
 C          2.066377    0.671485    0.010114
 H         -0.057023    1.250350    0.019137
 C          4.215212   -0.570869   -0.016869
 C          2.756553    1.931768    0.050150
 C          4.885096    0.698639    0.023452
 C          4.973758   -1.783991   -0.050070
 C          4.127572    1.912071    0.055757
 C          6.294624    0.661932    0.029433
 C          6.345131   -1.802686   -0.044877
 H          4.436158   -2.728285   -0.081154
 H          4.665714    2.856138    0.086097
 S          7.359870    2.053915    0.078014
 C          7.033696   -0.542907   -0.002926
 C          8.798931    1.019430    0.055398
 C          8.431648   -0.317304    0.012501
 C         10.133221    1.549049    0.077840
 H          9.160685   -1.119192   -0.005536
 S         11.484482    0.419316    0.026761
 C         10.598594    2.866972    0.135957
 C         12.664945    1.718591    0.085829
 C         12.010459    2.938647    0.139480
 C          9.745646    4.106595    0.191748
 C         14.087574    1.434118    0.074138
 H         12.549567    3.875206    0.181388
 H          9.103303    4.202199   -0.691743
 H          9.093443    4.116012    1.073065
 H         10.379610    4.996197    0.238355
 C         14.576809    0.136693    0.033328
 C         15.089788    2.484449    0.103379
 C         15.957322   -0.190113    0.018926
 H         13.885366   -0.699721    0.011126
 C         16.505511    2.159004    0.088876
 N         14.858870    3.797071    0.143673
 C         16.964105    0.793733    0.045757
 C         16.416722   -1.555267   -0.024206
 N         17.302807    3.225446    0.118456
 S         16.326010    4.550295    0.161664
 C         18.346323    0.466290    0.029948
 C         17.833117   -1.877693   -0.039408
 N         15.620305   -2.622025   -0.052660
 C         18.836091   -0.828549   -0.011237
 H         19.037814    1.302443    0.049918
 N         18.064971   -3.191053   -0.078821
 S         16.600362   -3.945500   -0.095569
 C         20.264353   -1.115771   -0.024787
 C         20.918223   -2.329120   -0.104512
 S         21.447919    0.190359    0.065493
 C         22.343568   -2.235970   -0.096712
 H         20.383360   -3.267406   -0.167730
 C         22.763691   -0.933790   -0.008897
 C         23.260415   -3.427632   -0.175524
 H         23.781498   -0.566132    0.017685
 H         24.310921   -3.123093   -0.153228
 H         23.090706   -4.114997    0.662153
 H         23.093742   -3.996390   -1.098415
 C        -21.796748    2.833073   -0.190707
 H        -22.451624    2.832815   -1.071296
 H        -22.437886    2.995281    0.685055
 H        -21.120197    3.688373   -0.275110
 C        -16.677690   -3.472001    0.350033
 H        -16.035623   -3.632083   -0.525495
 H        -16.023185   -3.472623    1.230962
 H        -17.353947   -4.327658    0.432530
 C          1.977338    3.220275    0.085578
 H          1.332763    3.321494   -0.796594
 H          1.324838    3.268033    0.966515
 H          2.647352    4.084017    0.114863
 C          7.124282   -3.091587   -0.082038
 H          7.777002   -3.138448   -0.962894
 H          7.768000   -3.194977    0.800546
 H          6.453917   -3.954970   -0.113197
