       116
S0: Total Energy = -7538.92874443
 C          4.577433    1.732675   -0.255637
 C          3.994805    2.988218   -0.253025
 C          2.562478    2.987847   -0.282731
 C          2.014341    1.704470   -0.284870
 S          3.301527    0.521526   -0.251161
 C          2.023172    4.312415   -0.384617
 C          2.991567    5.275740   -0.411774
 S          4.640338    4.617570   -0.281647
 C          2.913364    6.756505   -0.406733
 O          3.831818    7.421108    0.035542
 O          1.820576    7.398728   -0.872267
 C          0.850922    6.807343   -1.752187
 H          1.298647    6.042473   -2.390156
 H          0.020477    6.384040   -1.179646
 H          0.476917    7.627309   -2.367318
 C          0.626637    1.311545   -0.287854
 C         -0.435059    1.981017    0.268465
 C         -1.697198    1.327495    0.093310
 C         -1.569246    0.096804   -0.616956
 S          0.110592   -0.191028   -1.074771
 C         -6.232559   -0.280569   -0.087111
 C         -5.171220   -0.950781   -0.642267
 C         -3.905708   -0.303930   -0.459089
 C         -4.032350    0.926283    0.258123
 S         -5.715070    1.214109    0.712626
 C         -2.960870    1.761730    0.554388
 C         -2.641060   -0.744393   -0.907117
 H         -0.312199    2.894815    0.837568
 H         -5.288349   -1.867623   -1.206814
 C         -7.619044   -0.673821   -0.091215
 C         -8.184573   -1.903406   -0.382031
 C         -9.611841   -1.952430   -0.266459
 C        -10.174949   -0.729446    0.099777
 S         -8.908592    0.459337    0.294459
 C        -10.127670   -3.272692   -0.482717
 C         -9.148595   -4.182039   -0.768068
 S         -7.519359   -3.465022   -0.817492
 C         -9.198376   -5.613374   -1.152545
 O         -8.281989   -6.112967   -1.778970
 O        -10.254888   -6.390964   -0.833822
 C        -11.223847   -6.067915    0.175673
 H        -10.781208   -5.488597    0.988834
 H        -12.068568   -5.526312   -0.260458
 H        -11.576699   -7.027177    0.557480
 C        -11.564477   -0.389618    0.290005
 C        -12.651807   -0.931222   -0.345224
 C        -13.912119   -0.379864    0.065074
 C        -13.745436    0.642294    1.050105
 S        -12.041413    0.856822    1.457456
 C        -18.418252    1.013567    0.937437
 C        -17.356633    1.570935    1.572614
 C        -16.089232    1.015167    1.163919
 C        -16.256939   -0.003061    0.179192
 S        -17.964366   -0.232694   -0.205306
 C        -15.203239   -0.714840   -0.395125
 C        -14.797151    1.360127    1.614532
 H        -12.548699   -1.672887   -1.127699
 H        -17.462357    2.352472    2.315795
 H        -19.465499    1.253851    1.067350
 C          5.972793    1.371290   -0.247039
 C          7.040383    2.169904    0.077913
 S          6.492917   -0.259012   -0.708774
 C          8.313399    1.519410   -0.022512
 H          6.925161    3.190515    0.422116
 C          8.187373    0.155338   -0.428672
 C          9.584660    2.074205    0.241804
 C          9.268314   -0.706324   -0.585014
 C         10.666117    1.209112    0.091785
 C         10.539389   -0.153891   -0.310508
 S         12.358644    1.622096    0.376705
 C         11.811932   -0.807343   -0.404953
 C         12.878405   -0.009586   -0.079112
 H         11.933885   -1.825476   -0.755274
 C         14.278759   -0.369144   -0.067963
 C         14.860028   -1.605072    0.209284
 S         15.532654    0.786367   -0.462085
 C         16.293939   -1.587630    0.085882
 C         14.373520   -2.882013    0.643075
 C         16.811206   -0.368910   -0.257290
 S         16.993536   -3.161315    0.437085
 C         15.373678   -3.797097    0.820587
 C         15.345093   -5.240586    1.157150
 O         16.271819   -5.964694    0.843392
 O         14.297351   -5.790770    1.809140
 C         13.316944   -5.044551    2.546040
 H         13.743497   -4.139582    2.984104
 H         12.465542   -4.791330    1.907057
 H         12.978469   -5.712902    3.339400
 H         17.839873   -0.071870   -0.405034
 H        -11.179922   -3.511497   -0.425831
 H          0.963051    4.517608   -0.432379
 H         13.325454   -3.090739    0.803943
 C          9.746514    3.508432    0.678761
 H          9.063519    4.170808    0.137410
 H          9.538782    3.626825    1.750337
 H         10.763724    3.870143    0.499299
 C          9.123724   -2.142436   -1.022854
 H          9.576405   -2.826416   -0.294729
 H          8.075297   -2.431127   -1.136613
 H          9.619872   -2.316618   -1.985592
 C         -3.106563    3.054344    1.317877
 H         -2.748394    3.906798    0.727648
 H         -4.147162    3.255269    1.586356
 H         -2.524846    3.034038    2.247521
 C         -2.469494   -2.031906   -1.672916
 H         -1.456053   -2.430792   -1.559627
 H         -3.164258   -2.802096   -1.325253
 H         -2.647659   -1.886691   -2.746596
 C        -14.561854    2.419888    2.661677
 H        -14.494555    1.981485    3.666269
 H        -13.624614    2.957020    2.477495
 H        -15.365704    3.160283    2.677368
 C        -15.459591   -1.781012   -1.430140
 H        -14.539167   -2.138272   -1.896431
 H        -15.967570   -2.647796   -0.986899
 H        -16.108770   -1.402769   -2.229384
       116
T1: Total Energy = -7538.88548793
 C          4.573788    1.742345   -0.129685
 C          3.985225    3.015206    0.031555
 C          2.572541    3.043986    0.048749
 C          1.981545    1.734606   -0.087605
 S          3.281173    0.524904   -0.256995
 C          2.064702    4.360412    0.169794
 C          3.056414    5.324416    0.253088
 S          4.667414    4.603504    0.205047
 C          3.061803    6.780403    0.460675
 O          4.087848    7.355550    0.790410
 O          1.943237    7.530474    0.307722
 C          0.768903    7.093419   -0.386242
 H          1.018457    6.471687   -1.249797
 H          0.093483    6.555801    0.287318
 H          0.274771    8.005385   -0.725432
 C          0.645119    1.346039   -0.096443
 C         -0.509669    2.134691    0.115117
 C         -1.722404    1.431081    0.045880
 C         -1.539492    0.029599   -0.224890
 S          0.182875   -0.351014   -0.393356
 C         -6.240634   -0.260047   -0.024169
 C         -5.116080   -1.043451   -0.235634
 C         -3.889845   -0.339803   -0.163293
 C         -4.075164    1.054253    0.109567
 S         -5.794766    1.427297    0.283937
 C         -3.036160    1.961862    0.219741
 C         -2.577458   -0.872609   -0.334544
 H         -0.457531    3.188959    0.345740
 H         -5.172640   -2.102118   -0.456455
 C         -7.607975   -0.673090   -0.031646
 C         -8.153690   -1.950264   -0.132466
 C         -9.580557   -2.001226   -0.086351
 C        -10.176506   -0.739316    0.030144
 S         -8.929857    0.488844    0.087515
 C        -10.075718   -3.345485   -0.104697
 C         -9.077011   -4.276630   -0.181816
 S         -7.456761   -3.549212   -0.262157
 C         -9.088096   -5.752572   -0.319847
 O         -8.120041   -6.332505   -0.776892
 O        -10.162470   -6.486741    0.038973
 C        -11.220408   -6.016933    0.888396
 H        -10.854821   -5.306244    1.632766
 H        -12.020976   -5.567030    0.293416
 H        -11.607412   -6.905890    1.388735
 C        -11.571379   -0.394179    0.082879
 C        -12.631194   -1.087489   -0.450814
 C        -13.908122   -0.476568   -0.228699
 C        -13.792906    0.752757    0.489408
 S        -12.109324    1.083364    0.905589
 C        -18.457159    1.010430    0.079413
 C        -17.428058    1.715548    0.613685
 C        -16.141703    1.098572    0.402522
 C        -16.258381   -0.127976   -0.318761
 S        -17.946427   -0.458756   -0.722897
 C        -15.173922   -0.939128   -0.650172
 C        -14.875969    1.563884    0.818489
 H        -12.496323   -1.983820   -1.043432
 H        -17.569421    2.646822    1.149601
 H        -19.510039    1.260141    0.101260
 C          5.933902    1.379563   -0.191563
 C          7.053984    2.206839   -0.088453
 S          6.417965   -0.314673   -0.428389
 C          8.293201    1.529444   -0.191964
 H          6.981250    3.275941    0.063345
 C          8.131679    0.116737   -0.377187
 C          9.590723    2.102967   -0.128312
 C          9.191115   -0.768520   -0.496902
 C         10.650663    1.213547   -0.246501
 C         10.486976   -0.195832   -0.425714
 S         12.364566    1.638451   -0.186188
 C         11.738180   -0.872108   -0.535457
 C         12.837173   -0.050050   -0.433000
 H         11.825059   -1.932289   -0.739642
 C         14.226813   -0.426994   -0.501325
 C         14.823786   -1.643019   -0.162415
 S         15.452555    0.675510   -1.094017
 C         16.242555   -1.651515   -0.401255
 C         14.371883   -2.871199    0.421102
 C         16.736287   -0.473138   -0.890827
 S         16.964633   -3.194376    0.028906
 C         15.381481   -3.777007    0.597914
 C         15.372160   -5.184047    1.064417
 O         16.258676   -5.949458    0.733661
 O         14.376649   -5.655715    1.846884
 C         13.499214   -4.827388    2.625881
 H         13.986094   -3.898808    2.931306
 H         12.582818   -4.609067    2.069530
 H         13.246570   -5.417950    3.508051
 H         17.751163   -0.203445   -1.146884
 H        -11.127455   -3.587776   -0.062630
 H          1.013347    4.596746    0.201438
 H         13.341263   -3.058226    0.687345
 C          9.772416    3.586052    0.065630
 H          9.196603    4.155484   -0.673174
 H          9.429102    3.901860    1.058908
 H         10.819823    3.884271   -0.032139
 C          9.009665   -2.251241   -0.702324
 H          9.611116   -2.827009    0.010540
 H          7.967434   -2.555633   -0.572834
 H          9.319675   -2.553976   -1.710566
 C         -3.239172    3.425329    0.511046
 H         -2.740273    4.050487   -0.239478
 H         -4.297951    3.697990    0.515124
 H         -2.823401    3.696725    1.490018
 C         -2.378770   -2.338861   -0.620557
 H         -1.319710   -2.608629   -0.649403
 H         -2.857822   -2.959836    0.145741
 H         -2.818369   -2.617613   -1.586428
 C        -14.708548    2.847127    1.593207
 H        -14.791220    2.676265    2.674707
 H        -13.728023    3.298634    1.407696
 H        -15.466330    3.585930    1.317324
 C        -15.338586   -2.216993   -1.433495
 H        -14.585110   -2.960411   -1.156950
 H        -16.321646   -2.666628   -1.259031
 H        -15.246453   -2.039670   -2.513227
       116
S1: Total Energy = -7538.86451072
 C          4.568407    1.747674   -0.169445
 C          3.981457    3.014973   -0.092364
 C          2.557696    3.032320   -0.112940
 C          1.988918    1.732376   -0.184571
 S          3.283302    0.531090   -0.244519
 C          2.036854    4.356918   -0.109735
 C          3.016680    5.326524   -0.068147
 S          4.646018    4.624046   -0.012493
 C          3.004894    6.794935    0.027765
 O          4.016307    7.401604    0.346503
 O          1.887311    7.521717   -0.216842
 C          0.738610    7.023909   -0.912622
 H          1.019884    6.341695   -1.718730
 H          0.045577    6.531781   -0.222425
 H          0.249596    7.903648   -1.334300
 C          0.634411    1.336587   -0.199082
 C         -0.498606    2.106819    0.083854
 C         -1.719211    1.412512   -0.006990
 C         -1.543903    0.030835   -0.365886
 S          0.171662   -0.333408   -0.599385
 C         -6.242797   -0.265462   -0.081339
 C         -5.117688   -1.037506   -0.364502
 C         -3.893276   -0.342859   -0.276157
 C         -4.068857    1.036726    0.085550
 S         -5.785123    1.401542    0.316141
 C         -3.028077    1.932776    0.229116
 C         -2.585553   -0.865128   -0.505951
 H         -0.432366    3.137574    0.404214
 H         -5.181537   -2.081096   -0.645691
 C         -7.601719   -0.671985   -0.083700
 C         -8.159029   -1.941036   -0.276726
 C         -9.580474   -1.997409   -0.192458
 C        -10.174853   -0.743169    0.049434
 S         -8.918671    0.480978    0.176630
 C        -10.074288   -3.333841   -0.310313
 C         -9.078186   -4.258399   -0.497024
 S         -7.466687   -3.516301   -0.560209
 C         -9.080623   -5.714552   -0.754244
 O         -8.106472   -6.252698   -1.251380
 O        -10.152194   -6.484936   -0.462313
 C        -11.218027   -6.092335    0.414064
 H        -10.858503   -5.458940    1.228248
 H        -12.009971   -5.582620   -0.143459
 H        -11.615858   -7.022629    0.822480
 C        -11.553785   -0.400946    0.176408
 C        -12.656035   -1.108250   -0.268484
 C        -13.907937   -0.486295    0.009864
 C        -13.751431    0.766892    0.681233
 S        -12.044508    1.106164    0.982452
 C        -18.432866    1.018690    0.535424
 C        -17.370891    1.737276    0.984632
 C        -16.102659    1.110002    0.718994
 C        -16.262289   -0.140006    0.044871
 S        -17.974170   -0.477273   -0.246073
 C        -15.199604   -0.961137   -0.322666
 C        -14.812794    1.587352    1.045706
 H        -12.566625   -2.022095   -0.841847
 H        -17.478414    2.686569    1.496373
 H        -19.481936    1.273597    0.611798
 C          5.939634    1.383437   -0.189678
 C          7.047704    2.212370   -0.046827
 S          6.433372   -0.305362   -0.421717
 C          8.292058    1.541931   -0.114873
 H          6.963852    3.278540    0.120433
 C          8.143138    0.128678   -0.311522
 C          9.586802    2.120543   -0.005377
 C          9.208089   -0.751918   -0.400836
 C         10.651411    1.237024   -0.091135
 C         10.500689   -0.174518   -0.283053
 S         12.361556    1.667763    0.030440
 C         11.752800   -0.843781   -0.352194
 C         12.850450   -0.017963   -0.207091
 H         11.848387   -1.902086   -0.560220
 C         14.237036   -0.388282   -0.232942
 C         14.827772   -1.629712    0.036970
 S         15.486690    0.765423   -0.666483
 C         16.256465   -1.610289   -0.127182
 C         14.360591   -2.903134    0.491069
 C         16.765490   -0.393347   -0.491645
 S         16.972180   -3.177594    0.210472
 C         15.369647   -3.817964    0.643440
 C         15.362447   -5.257774    0.990313
 O         16.298212   -5.970817    0.675528
 O         14.322192   -5.821856    1.643493
 C         13.340894   -5.088467    2.391146
 H         13.763687   -4.184200    2.834512
 H         12.483997   -4.836250    1.758901
 H         13.010912   -5.764859    3.181278
 H         17.790402   -0.100858   -0.671642
 H        -11.122905   -3.583586   -0.253704
 H          0.982461    4.581099   -0.143482
 H         13.320893   -3.118363    0.690181
 C          9.753969    3.603574    0.198890
 H          9.196804    4.171813   -0.555028
 H          9.378585    3.913853    1.182379
 H         10.802027    3.908412    0.133917
 C          9.039807   -2.233978   -0.618772
 H          9.615227   -2.810252    0.114951
 H          7.994435   -2.542376   -0.531341
 H          9.390161   -2.531266   -1.615392
 C         -3.220269    3.375804    0.614872
 H         -2.725955    4.044919   -0.099842
 H         -4.277529    3.652285    0.647963
 H         -2.792483    3.582702    1.604342
 C         -2.393099   -2.311049   -0.882341
 H         -1.335533   -2.586957   -0.911382
 H         -2.889134   -2.975571   -0.165151
 H         -2.818994   -2.524105   -1.871016
 C        -14.608454    2.896000    1.767186
 H        -14.691434    2.771205    2.854897
 H        -13.618532    3.315649    1.560140
 H        -15.350080    3.641157    1.464201
 C        -15.389435   -2.268897   -1.047726
 H        -15.144955   -2.174559   -2.113999
 H        -14.744044   -3.051060   -0.633012
 H        -16.421538   -2.624377   -0.977081
