       119
S0: Total Energy = -7764.49044295
 C          4.819069    1.685882   -0.206471
 C          4.242247    2.942636   -0.247477
 C          2.808173    2.946503   -0.279027
 C          2.256955    1.663321   -0.245649
 S          3.540827    0.478630   -0.169183
 C          2.280226    4.272411   -0.403615
 C          3.257676    5.227166   -0.445979
 S          4.904180    4.565160   -0.341539
 C          3.127008    6.690659   -0.568287
 O          4.131043    7.393734   -0.593824
 C          0.870513    1.268983   -0.245683
 C         -0.207033    1.990332    0.209038
 C         -1.455821    1.307785    0.070578
 C         -1.296212    0.005834   -0.486952
 S          0.384232   -0.320078   -0.880265
 C         -5.975887   -0.381979   -0.007109
 C         -4.899529   -1.103618   -0.462000
 C         -3.650248   -0.419913   -0.324963
 C         -3.809306    0.881082    0.235566
 S         -5.490303    1.204988    0.631060
 C         -2.743258    1.749702    0.434573
 C         -2.362667   -0.862730   -0.687500
 H         -0.116466    2.956980    0.688561
 H         -4.987003   -2.077055   -0.928966
 C         -7.358697   -0.788588    0.007545
 C         -7.900993   -2.057911   -0.087115
 C         -9.333186   -2.107105   -0.021213
 C         -9.918249   -0.846234    0.111777
 S         -8.669281    0.376370    0.146023
 C         -9.824003   -3.453022   -0.043707
 C         -8.821789   -4.377478   -0.140036
 S         -7.195983   -3.660364   -0.204630
 C         -8.908251   -5.848588   -0.189778
 O         -7.883909   -6.517273   -0.271904
 C        -11.315054   -0.495278    0.190386
 C        -12.381780   -1.178782   -0.338154
 C        -13.646152   -0.555130   -0.087934
 C        -13.507730    0.662945    0.638526
 S        -11.827626    0.979953    1.042872
 C        -18.185983    0.977485    0.282099
 C        -17.147678    1.668684    0.818333
 C        -15.874824    1.038021    0.580994
 C        -16.014299   -0.176380   -0.151628
 S        -17.699081   -0.488858   -0.549173
 C        -14.927036   -0.978813   -0.487484
 C        -14.593172    1.463691    0.975615
 H        -12.276356   -2.070453   -0.943624
 H        -17.262266    2.590693    1.375849
 H        -19.236871    1.233973    0.318503
 C          6.213632    1.321121   -0.182202
 C          7.275653    2.114447    0.175679
 S          6.734872   -0.306349   -0.673401
 C          8.542676    1.456491    0.077623
 H          7.166996    3.125852    0.548130
 C          8.412731    0.103229   -0.350070
 C          9.822831    1.969000    0.365863
 C          9.501470   -0.749289   -0.489758
 C         10.911494    1.115900    0.226118
 C         10.781323   -0.237677   -0.199785
 S         12.589166    1.526329    0.545831
 C         12.049588   -0.893514   -0.302041
 C         13.111908   -0.100499    0.053100
 H         12.160874   -1.900614   -0.684243
 C         14.513438   -0.451661    0.060093
 C         15.103934   -1.705592    0.218709
 S         15.761783    0.751723   -0.180457
 C         16.542052   -1.658244    0.137247
 C         14.630977   -3.031990    0.480987
 C         17.049792   -0.404916   -0.065513
 S         17.265323   -3.248040    0.352713
 C         15.644010   -3.946540    0.573480
 C         15.565107   -5.395890    0.829881
 O         16.591203   -6.065615    0.878839
 O        -14.411337    2.613705    1.708702
 O        -15.094324   -2.130082   -1.221787
 O         -2.936549    2.986152    1.005610
 O         -2.161112   -2.093813   -1.263579
 O          9.997081    3.256416    0.814295
 O          9.333243   -2.039224   -0.937957
 C        -14.328565    3.815453    0.924191
 H        -13.481484    3.772766    0.229892
 H        -15.253023    3.982111    0.359426
 H        -14.179950    4.631151    1.634050
 C        -15.285503   -3.317193   -0.434793
 H        -14.413494   -3.511006    0.201229
 H        -16.180094   -3.234166    0.192756
 H        -15.411864   -4.135859   -1.145654
 C         -3.124708    4.054968    0.062954
 H         -2.242921    4.173327   -0.578073
 H         -4.006354    3.876232   -0.562928
 H         -3.273223    4.959452    0.655559
 C         -2.065974   -3.186473   -0.332195
 H         -1.221534   -3.043637    0.351646
 H         -2.990156   -3.293173    0.246735
 H         -1.904783   -4.082522   -0.933772
 C         10.046814    4.252703   -0.222436
 H         10.885158    4.065831   -0.903178
 H          9.111682    4.275270   -0.793193
 H         10.190201    5.208673    0.283979
 C          9.209490   -3.021305    0.103998
 H         10.113564   -3.053150    0.723602
 H          8.341556   -2.812618    0.739780
 H          9.073583   -3.980953   -0.398013
 H         18.077563   -0.082169   -0.153815
 C        -10.281904   -6.488751   -0.137850
 H        -10.805388   -6.213055    0.784720
 H        -10.898232   -6.155980   -0.980904
 H        -10.167992   -7.573318   -0.179042
 C          1.732554    7.280163   -0.655745
 H          1.187388    6.868819   -1.512843
 H          1.156182    7.046559    0.246923
 H          1.812807    8.363209   -0.762861
 C         14.194967   -6.017486    1.024695
 H         13.676614   -5.560937    1.875613
 H         13.570050   -5.868133    0.136763
 H         14.315350   -7.086895    1.205983
 H        -10.871375   -3.718486    0.027786
 H          1.224707    4.502176   -0.477538
 H         13.587185   -3.290497    0.609380
       119
T1: Total Energy = -7764.44726557
 C          4.824079    1.701648    0.016588
 C          4.237493    2.969769    0.208153
 C          2.822401    2.996020    0.243849
 C          2.234251    1.689244    0.073899
 S          3.533433    0.483341   -0.122498
 C          2.320149    4.304846    0.432447
 C          3.317730    5.260805    0.537931
 S          4.926879    4.555511    0.402117
 C          3.227381    6.705200    0.736547
 O          4.249105    7.390926    0.798704
 C          0.897559    1.301036    0.051642
 C         -0.258680    2.102085    0.203907
 C         -1.465183    1.388214    0.133679
 C         -1.268066   -0.020133   -0.058531
 S          0.443982   -0.413260   -0.191368
 C         -5.980973   -0.340502    0.088014
 C         -4.855749   -1.135257   -0.064524
 C         -3.635696   -0.420406    0.001393
 C         -3.835935    0.982084    0.188267
 S         -5.546309    1.366686    0.325121
 C         -2.792264    1.887955    0.248406
 C         -2.310021   -0.920616   -0.120067
 H         -0.224171    3.166321    0.385550
 H         -4.899303   -2.199449   -0.260078
 C         -7.348564   -0.758543    0.078227
 C         -7.884774   -2.041023    0.128405
 C         -9.314430   -2.097187    0.120090
 C         -9.915379   -0.834016    0.046955
 S         -8.674421    0.399462   -0.013326
 C         -9.798380   -3.438616    0.248415
 C         -8.789063   -4.357845    0.333016
 S         -7.169537   -3.633762    0.268681
 C         -8.864842   -5.823291    0.474055
 O         -7.834289   -6.484354    0.539503
 C        -11.311153   -0.491668    0.001711
 C        -12.356894   -1.273568   -0.430627
 C        -13.630129   -0.627045   -0.353718
 C        -13.525336    0.708489    0.133284
 S        -11.864081    1.113927    0.537181
 C        -18.185964    0.898752   -0.461071
 C        -17.172075    1.690827   -0.026581
 C        -15.889159    1.040381   -0.089274
 C        -15.995206   -0.292811   -0.581733
 S        -17.661627   -0.693891   -0.977114
 C        -14.893136   -1.132732   -0.715370
 C        -14.625575    1.546850    0.268227
 H        -12.227113   -2.261617   -0.853893
 H        -17.311919    2.700934    0.339684
 H        -19.238239    1.146288   -0.514949
 C          6.184465    1.339962   -0.066900
 C          7.304794    2.160405    0.082354
 S          6.659958   -0.346673   -0.399294
 C          8.536808    1.479604   -0.062918
 H          7.246519    3.214788    0.318903
 C          8.362940    0.081239   -0.310936
 C          9.848101    2.008133    0.025190
 C          9.427145   -0.792248   -0.454178
 C         10.912160    1.130293   -0.118657
 C         10.736246   -0.265277   -0.358919
 S         12.615388    1.551725   -0.026595
 C         11.979157   -0.945696   -0.506721
 C         13.079848   -0.130170   -0.362624
 H         12.048225   -1.993106   -0.772008
 C         14.468415   -0.503468   -0.455377
 C         15.061833   -1.748348   -0.230244
 S         15.699135    0.649233   -0.931227
 C         16.484800   -1.733627   -0.453829
 C         14.608235   -3.032899    0.209878
 C         16.980708   -0.514745   -0.827584
 S         17.215022   -3.305242   -0.151590
 C         15.619837   -3.950867    0.295038
 C         15.556286   -5.365686    0.704177
 O         16.576852   -6.045350    0.716854
 O        -14.478519    2.816952    0.776240
 O        -15.028779   -2.404406   -1.221904
 O         -3.027024    3.225507    0.452697
 O         -2.076887   -2.256770   -0.336385
 O         10.066026    3.336241    0.289598
 O          9.217246   -2.124610   -0.720783
 C        -14.358353    3.848004   -0.218351
 H        -13.479930    3.680687   -0.852177
 H        -15.255588    3.896658   -0.846046
 H        -14.242186    4.785053    0.329164
 C        -15.219585   -3.425171   -0.228379
 H        -14.356539   -3.483188    0.445705
 H        -16.125932   -3.238305    0.358610
 H        -15.324001   -4.364599   -0.774318
 C         -3.071448    4.016793   -0.748941
 H         -2.117154    3.969811   -1.285706
 H         -3.878103    3.678582   -1.408842
 H         -3.264505    5.042009   -0.428474
 C         -2.060478   -3.065196    0.854266
 H         -1.263701   -2.741467    1.533351
 H         -3.024086   -3.021345    1.374114
 H         -1.869064   -4.086871    0.522327
 C         10.000590    4.202880   -0.858628
 H         10.764866    3.930238   -1.594987
 H          9.010809    4.162984   -1.326491
 H         10.190160    5.210548   -0.485798
 C          9.208603   -2.972156    0.440810
 H         10.173448   -2.936664    0.960342
 H          8.412000   -2.679473    1.133974
 H          9.023842   -3.983990    0.075901
 H         17.997784   -0.221604   -1.046672
 C        -10.236583   -6.466762    0.532717
 H        -10.811413   -6.080499    1.382249
 H        -10.806120   -6.251289   -0.378583
 H        -10.116627   -7.546328    0.637916
 C          1.845588    7.322937    0.861681
 H          1.254154    7.146610   -0.044526
 H          1.295698    6.888987    1.704879
 H          1.953110    8.398029    1.016641
 C         14.208650   -5.938698    1.099911
 H         13.783241   -5.386181    1.945430
 H         13.497822   -5.871607    0.268315
 H         14.339007   -6.985273    1.380274
 H        -10.846625   -3.705344    0.294470
 H          1.272283    4.566136    0.490601
 H         13.581301   -3.261538    0.466823
       119
S1: Total Energy = -7764.42651590
 C          4.812243    1.686795   -0.050211
 C          4.227725    2.955839   -0.001707
 C          2.801525    2.973631   -0.020209
 C          2.235348    1.672198   -0.068890
 S          3.528890    0.468861   -0.098180
 C          2.287520    4.300483   -0.030472
 C          3.274211    5.262436   -0.005163
 S          4.902919    4.564756    0.021370
 C          3.173372    6.721355   -0.004441
 O          4.192473    7.413469    0.013339
 C          0.880836    1.274203   -0.083497
 C         -0.256648    2.060893    0.131517
 C         -1.468680    1.352345    0.054710
 C         -1.275438   -0.045554   -0.202695
 S          0.431627   -0.424703   -0.393333
 C         -5.987801   -0.371865    0.025981
 C         -4.858189   -1.160165   -0.187296
 C         -3.641825   -0.452146   -0.109629
 C         -3.835793    0.944361    0.149718
 S         -5.544362    1.323062    0.336567
 C         -2.793649    1.844980    0.227292
 C         -2.318129   -0.945564   -0.280152
 H         -0.211891    3.108434    0.395268
 H         -4.905480   -2.214006   -0.430522
 C         -7.346496   -0.782138    0.015961
 C         -7.892778   -2.066251   -0.074002
 C         -9.318844   -2.121944   -0.040876
 C         -9.921040   -0.852238    0.063689
 S         -8.671639    0.384363    0.120294
 C         -9.799362   -3.467156   -0.071752
 C         -8.789706   -4.393244   -0.142761
 S         -7.177633   -3.656717   -0.164869
 C         -8.858397   -5.860291   -0.193415
 O         -7.825658   -6.522838   -0.248938
 C        -11.303379   -0.502099    0.107154
 C        -12.392867   -1.270194   -0.264746
 C        -13.644503   -0.610732   -0.109426
 C        -13.497796    0.723705    0.376975
 S        -11.810226    1.109065    0.681930
 C        -18.183297    0.968419    0.051304
 C        -17.134803    1.747252    0.428658
 C        -15.867450    1.083175    0.290049
 C        -16.017110   -0.247506   -0.199671
 S        -17.709091   -0.627939   -0.498277
 C        -14.936375   -1.099731   -0.398942
 C        -14.576808    1.572806    0.576776
 H        -12.305338   -2.255746   -0.702792
 H        -17.241496    2.757627    0.805358
 H        -19.233693    1.229261    0.059279
 C          6.184171    1.322805   -0.068599
 C          7.287425    2.149754    0.121702
 S          6.678887   -0.360310   -0.369194
 C          8.528312    1.478222    0.032063
 H          7.208488    3.202532    0.360711
 C          8.374597    0.075984   -0.211611
 C          9.834108    2.016250    0.174040
 C          9.447784   -0.791830   -0.302170
 C         10.906179    1.145382    0.083133
 C         10.750862   -0.254718   -0.156675
 S         12.602070    1.579089    0.241388
 C         11.997841   -0.925292   -0.251892
 C         13.093436   -0.100889   -0.069072
 H         12.079195   -1.973390   -0.509031
 C         14.481536   -0.460210   -0.113895
 C         15.080320   -1.722487    0.009790
 S         15.727455    0.749255   -0.374785
 C         16.513874   -1.668215   -0.115879
 C         14.625053   -3.052577    0.266257
 C         17.014622   -0.410955   -0.317502
 S         17.252793   -3.254352    0.052215
 C         15.646755   -3.965831    0.312600
 C         15.584926   -5.418443    0.547918
 O         16.617556   -6.081234    0.555943
 O        -14.387891    2.839990    1.078613
 O        -15.117668   -2.367583   -0.899243
 O         -3.021127    3.171417    0.499968
 O         -2.085995   -2.269064   -0.558387
 O         10.034073    3.346207    0.438701
 O          9.258641   -2.126714   -0.565360
 C        -14.307397    3.871209    0.080295
 H        -13.464063    3.695687   -0.597448
 H        -15.234761    3.930265   -0.501061
 H        -14.153701    4.806211    0.622089
 C        -15.239604   -3.392748    0.101287
 H        -14.331123   -3.455378    0.711897
 H        -16.101807   -3.205907    0.751405
 H        -15.384984   -4.329402   -0.440049
 C         -3.093555    4.018683   -0.661425
 H         -2.153344    3.995592   -1.224193
 H         -3.917553    3.713244   -1.315808
 H         -3.275566    5.027816   -0.287982
 C         -2.074534   -3.135961    0.591245
 H         -1.275619   -2.850057    1.284573
 H         -3.037570   -3.112348    1.112965
 H         -1.888881   -4.140685    0.208505
 C          9.976715    4.212909   -0.710648
 H         10.757272    3.949676   -1.433120
 H          8.995953    4.161264   -1.195559
 H         10.147287    5.222372   -0.333795
 C          9.212606   -2.966826    0.601695
 H         10.155533   -2.917425    1.158575
 H          8.385878   -2.677141    1.259782
 H          9.052534   -3.982669    0.236557
 H         18.039619   -0.088848   -0.436381
 C        -10.227747   -6.513265   -0.175672
 H        -10.775561   -6.246116    0.735413
 H        -10.828129   -6.184250   -1.031693
 H        -10.102804   -7.596686   -0.217163
 C          1.788398    7.343268   -0.026109
 H          1.237526    7.042265   -0.925093
 H          1.201002    7.025647    0.843324
 H          1.890173    8.430031   -0.014586
 C         14.225527   -6.053213    0.772585
 H         13.729410   -5.615861    1.646649
 H         13.572951   -5.893910   -0.093536
 H         14.358839   -7.124609    0.931756
 H        -10.844292   -3.744684   -0.022939
 H          1.236864    4.554242   -0.076852
 H         13.589905   -3.325542    0.426637
