       158
S0: Total Energy = -10849.7997267
 C          5.374488    1.522359   -0.455984
 C          4.785092    2.758448   -0.659857
 C          3.353069    2.746269   -0.673892
 C          2.812712    1.477503   -0.455275
 S          4.106434    0.323232   -0.234259
 C          2.803428    4.032164   -0.988557
 C          3.765771    4.981858   -1.187347
 S          5.420535    4.361612   -0.971587
 C          3.683533    6.441991   -1.431293
 O          4.620489    7.166539   -1.150358
 O          2.571716    7.005547   -1.950736
 C          1.549238    6.282812   -2.654893
 H          1.958387    5.422500   -3.188887
 H          0.761132    5.961828   -1.966951
 H          1.130675    6.993446   -3.369332
 C          1.426794    1.087344   -0.390338
 C          0.363209    1.863095   -0.002150
 C         -0.900505    1.194080   -0.063346
 C         -0.766449   -0.160110   -0.491089
 S          0.915551   -0.545357   -0.851075
 C         -5.438539   -0.433369    0.104174
 C         -4.374633   -1.214952   -0.269967
 C         -3.109196   -0.547218   -0.205159
 C         -3.242661    0.807623    0.222053
 S         -4.925688    1.196628    0.572034
 C         -2.172961    1.704154    0.302171
 C         -1.836451   -1.057973   -0.568522
 H          0.480501    2.869707    0.377203
 H         -4.486160   -2.228263   -0.633848
 C         -2.373830    3.094543    0.742091
 C         -2.987690    3.546129    1.884934
 C         -3.053297    4.968096    1.978976
 C         -2.498839    5.621058    0.910662
 S         -1.880687    4.465510   -0.248900
 H         -3.362721    2.876574    2.651457
 H         -3.494644    5.492863    2.820251
 C         -1.633786   -2.448250   -1.007254
 C         -1.010457   -2.899100   -2.146356
 C         -0.951423   -4.320589   -2.242067
 C         -1.520696   -4.971347   -1.179295
 S         -2.145532   -3.816201   -0.025418
 H         -0.626987   -2.230235   -2.909358
 H         -0.506089   -4.846977   -3.080261
 C         -6.827203   -0.816068    0.154702
 C         -7.387772   -2.080597    0.206287
 C         -8.818968   -2.101641    0.261586
 C         -9.387923   -0.827318    0.230738
 S         -8.122455    0.374179    0.132161
 C         -9.335264   -3.430310    0.415027
 C         -8.350101   -4.376266    0.458232
 S         -6.714074   -3.696579    0.281302
 C         -8.397667   -5.857471    0.507954
 O         -7.457876   -6.517186    0.103913
 O         -9.480434   -6.509311    0.983454
 C         -2.388870    7.097637    0.672447
 H         -2.906478    7.404192   -0.244413
 H         -2.839313    7.639285    1.509655
 H         -1.344912    7.422057    0.584747
 C         -1.645232   -6.447441   -0.945319
 H         -1.138612   -6.759829   -0.024315
 H         -1.192634   -6.991538   -1.779893
 H         -2.693032   -6.760427   -0.865747
 C        -10.490597   -5.908381    1.809292
 H        -10.078633   -5.116723    2.438772
 H        -11.307527   -5.517635    1.195189
 H        -10.871387   -6.715906    2.436588
 C        -10.782583   -0.460333    0.251413
 C        -11.840785   -1.193302   -0.221308
 C        -13.114776   -0.560409   -0.047203
 C        -12.991801    0.723800    0.560864
 S        -11.309023    1.083581    0.944842
 C        -17.656321    1.002941    0.055358
 C        -16.625496    1.751375    0.522458
 C        -15.343609    1.110678    0.365416
 C        -15.467915   -0.173643   -0.242302
 S        -17.155231   -0.535327   -0.608248
 C        -14.384405   -1.034731   -0.460003
 C        -14.073581    1.584310    0.776827
 H        -11.716199   -2.134908   -0.739743
 H        -16.755357    2.725568    0.976622
 C        -14.572282   -2.354885   -1.083686
 C        -15.201827   -2.657363   -2.266361
 C        -15.246691   -4.054028   -2.553438
 C        -14.661265   -4.836941   -1.594551
 S        -14.038349   -3.839581   -0.298781
 H        -15.604042   -1.896138   -2.925991
 H        -15.696089   -4.467082   -3.450896
 C        -13.878580    2.904944    1.399972
 C        -13.260825    3.201108    2.590838
 C        -13.201697    4.597955    2.874063
 C        -13.765031    5.383908    1.904037
 S        -14.385721    4.391008    0.604915
 H        -12.878177    2.436666    3.258565
 H        -12.758353    5.008710    3.775638
 C        -14.523282   -6.329939   -1.563587
 H        -15.015295   -6.768771   -0.687287
 H        -14.984197   -6.759671   -2.458085
 H        -13.472754   -6.644165   -1.542546
 C        -13.882102    6.878641    1.865124
 H        -13.366823    7.307012    0.997066
 H        -13.433579    7.305976    2.767151
 H        -14.927665    7.206354    1.820151
 H        -18.708111    1.258552    0.056781
 C          6.771676    1.172973   -0.401652
 C          7.833171    2.018675   -0.199418
 S          7.299791   -0.502732   -0.630344
 C          9.109204    1.367700   -0.216484
 H          7.715834    3.074980    0.005691
 C          8.987061   -0.038841   -0.421021
 C         10.385424    1.947522    0.001536
 C         10.071867   -0.920986   -0.410687
 C         11.471081    1.064768    0.010693
 C         10.577425    3.391854    0.210009
 C         11.347744   -0.341056   -0.193935
 C          9.881845   -2.366643   -0.614355
 S         13.160130    1.525934    0.216881
 C         11.244399    4.022318    1.233180
 S          9.990133    4.584183   -0.943604
 C         12.623634   -0.992234   -0.218356
 C          9.226573   -3.004591   -1.639206
 S         10.449241   -3.553063    0.558118
 C         13.685510   -0.149483   -0.016124
 C         11.277167    5.442214    1.106038
 H         11.678391    3.484646    2.069322
 C         10.644180    5.912731   -0.014203
 H         12.745725   -2.044253   -0.440661
 C          9.187223   -4.423968   -1.500970
 H          8.802541   -2.472248   -2.483788
 C          9.803418   -4.888637   -0.369809
 C         15.085822   -0.503120    0.028478
 H         11.750165    6.098206    1.829881
 C         10.476601    7.333072   -0.465545
 H          8.719385   -5.083505   -2.224880
 C          9.955542   -6.305964    0.096255
 C         15.666738   -1.705484    0.428787
 S         16.339751    0.605976   -0.481203
 H         10.929615    7.506064   -1.449086
 H         10.958894    8.005656    0.250328
 H          9.419693    7.616110   -0.536766
 H          9.488768   -6.467395    1.075324
 H          9.476883   -6.981213   -0.619420
 H         11.009040   -6.598409    0.182110
 C         17.100353   -1.701150    0.304137
 C         15.178904   -2.932809    0.986216
 C         17.617734   -0.523232   -0.160646
 S         17.799238   -3.232408    0.810621
 C         16.178691   -3.825624    1.254815
 C         16.144071   -5.227601    1.734372
 O         17.064003   -5.986623    1.491104
 O         15.089942   -5.702963    2.433738
 C         14.131470   -4.877406    3.114275
 H         14.576647   -3.940619    3.456065
 H         13.271701   -4.673806    2.468833
 H         13.800695   -5.462771    3.973828
 H         18.646384   -0.242929   -0.338207
 H        -10.390897   -3.650155    0.484108
 H          1.741677    4.220838   -1.055059
 H         14.130515   -3.126837    1.163824
       158
T1: Total Energy = -10849.7559816
 C          5.382201    1.608979   -0.247692
 C          4.795390    2.892652   -0.199549
 C          3.383155    2.924174   -0.209706
 C          2.790586    1.610393   -0.240984
 S          4.087093    0.387985   -0.289552
 C          2.874733    4.246222   -0.236996
 C          3.868391    5.210564   -0.232797
 S          5.478435    4.489502   -0.175713
 C          3.864543    6.680971   -0.172900
 O          4.868966    7.293373    0.154078
 O          2.753917    7.400400   -0.465014
 C          1.640491    6.886934   -1.207323
 H          1.959316    6.172735   -1.970507
 H          0.906553    6.423554   -0.540471
 H          1.185555    7.754662   -1.688571
 C          1.451779    1.228125   -0.228032
 C          0.307712    2.033568   -0.031194
 C         -0.911557    1.337519   -0.071075
 C         -0.733788   -0.073949   -0.279853
 S          0.978181   -0.474051   -0.460383
 C         -5.435220   -0.369175    0.074188
 C         -4.318800   -1.166157   -0.117369
 C         -3.088433   -0.464769   -0.076800
 C         -3.270047    0.937601    0.133222
 S         -4.981985    1.325661    0.312956
 C         -2.229018    1.863966    0.136218
 C         -1.772016   -0.992599   -0.280891
 H          0.370970    3.085701    0.203731
 H         -4.381156   -2.226289   -0.325334
 C         -2.485183    3.295191    0.342558
 C         -3.226153    3.890028    1.336512
 C         -3.338386    5.304713    1.203371
 C         -2.693249    5.811357    0.106530
 S         -1.921739    4.523030   -0.792055
 H         -3.661033    3.329375    2.156735
 H         -3.879708    5.931494    1.904748
 C         -1.524716   -2.428345   -0.485668
 C         -0.824126   -3.033735   -1.501499
 C         -0.736320   -4.450833   -1.371254
 C         -1.360962   -4.944282   -0.256275
 S         -2.076626   -3.641739    0.664629
 H         -0.403509   -2.480275   -2.334118
 H         -0.230751   -5.088701   -2.089185
 C         -6.803730   -0.781339    0.098134
 C         -7.345707   -2.062478    0.148067
 C         -8.773021   -2.110661    0.181004
 C         -9.370683   -0.845305    0.135179
 S         -8.126897    0.383598    0.052731
 C         -9.267322   -3.447009    0.330038
 C         -8.265664   -4.375870    0.391576
 S         -6.644515   -3.662377    0.241706
 C         -8.281748   -5.857064    0.447254
 O         -7.318356   -6.497536    0.068193
 O         -9.360415   -6.530412    0.901521
 C         -2.608464    7.238432   -0.346599
 H         -3.023098    7.373329   -1.352676
 H         -3.175508    7.875131    0.339124
 H         -1.574541    7.603949   -0.365847
 C         -1.476119   -6.369486    0.195893
 H         -1.028721   -6.522193    1.185337
 H         -0.957754   -7.022757   -0.512565
 H         -2.521392   -6.695493    0.254011
 C        -10.400777   -5.947528    1.702435
 H        -10.017792   -5.149579    2.342285
 H        -11.209308   -5.570043    1.069151
 H        -10.782629   -6.762019    2.319971
 C        -10.767769   -0.506046    0.136371
 C        -11.813907   -1.276599   -0.310265
 C        -13.098021   -0.660747   -0.165913
 C        -13.000991    0.649220    0.391239
 S        -11.326373    1.055727    0.764619
 C        -17.668313    0.821489   -0.135455
 C        -16.652519    1.606144    0.305024
 C        -15.358988    0.983976    0.175190
 C        -15.457641   -0.324779   -0.383086
 S        -17.137112   -0.731199   -0.738748
 C        -14.358014   -1.173829   -0.564262
 C        -14.098607    1.496931    0.570802
 H        -11.671683   -2.234444   -0.792776
 H        -16.801686    2.594313    0.721479
 C        -14.519783   -2.519104   -1.139044
 C        -15.144653   -2.875663   -2.309165
 C        -15.162862   -4.282084   -2.546647
 C        -14.561337   -5.019188   -1.561794
 S        -13.956411   -3.964853   -0.302978
 H        -15.562010   -2.146246   -2.994772
 H        -15.605118   -4.734954   -3.428268
 C        -13.930263    2.843688    1.143737
 C        -13.319855    3.195824    2.323123
 C        -13.288754    4.602988    2.554737
 C        -13.866626    5.341354    1.556279
 S        -14.465927    4.289128    0.294255
 H        -12.923107    2.464270    3.018846
 H        -12.854636    5.055161    3.440820
 C        -14.394139   -6.507193   -1.478588
 H        -14.875515   -6.924269   -0.585912
 H        -14.848395   -6.977434   -2.355972
 H        -13.337615   -6.800055   -1.449603
 C        -14.013742    6.831004    1.462327
 H        -13.503508    7.237788    0.580992
 H        -13.578050    7.300348    2.349672
 H        -15.065526    7.135387    1.401526
 H        -18.724596    1.057562   -0.145899
 C          6.741073    1.239256   -0.267866
 C          7.858669    2.067430   -0.145888
 S          7.225056   -0.458701   -0.467747
 C          9.098676    1.387828   -0.217451
 H          7.785074    3.132128    0.028460
 C          8.932972   -0.026853   -0.376617
 C         10.407603    1.942797   -0.091192
 C          9.990730   -0.930934   -0.401892
 C         11.466545    1.032104   -0.116204
 C         10.645563    3.384477    0.059957
 C         11.296908   -0.376581   -0.273122
 C          9.758323   -2.376402   -0.555680
 S         13.177205    1.451529   -0.024916
 C         11.417543    4.023930    1.002047
 S          9.982055    4.564408   -1.066656
 C         12.544920   -1.060886   -0.353158
 C          9.035875   -3.023767   -1.528094
 S         10.357305   -3.545898    0.618375
 C         13.644831   -0.242210   -0.237833
 C         11.470284    5.438067    0.835372
 H         11.910630    3.497243    1.811887
 C         10.748612    5.897030   -0.235495
 H         12.624188   -2.121059   -0.554007
 C          8.969610   -4.437516   -1.349420
 H          8.580767   -2.502714   -2.363494
 C          9.632246   -4.888066   -0.239038
 C         15.031094   -0.633354   -0.267442
 H         12.020733    6.099491    1.496674
 C         10.572117    7.309850   -0.706056
 H          8.448719   -5.103349   -2.029963
 C          9.773509   -6.296095    0.257568
 C         15.601622   -1.859721    0.081063
 S         16.289341    0.458337   -0.809523
 H         10.927173    7.445735   -1.734580
 H         11.141014    7.986075   -0.060827
 H          9.520784    7.619782   -0.677490
 H          9.357373   -6.418429    1.264684
 H          9.239050   -6.976935   -0.411775
 H         10.822314   -6.614685    0.294059
 C         17.027366   -1.883654   -0.108072
 C         15.113614   -3.087243    0.635418
 C         17.551508   -0.707423   -0.570920
 S         17.715214   -3.438526    0.335007
 C         16.105265   -4.006917    0.840360
 C         16.062052   -5.417218    1.293867
 O         16.955931   -6.188449    0.997460
 O         15.028324   -5.886280    2.026923
 C         14.116782   -5.057146    2.765260
 H         14.595241   -4.137313    3.108223
 H         13.234890   -4.821950    2.161601
 H         13.810457   -5.654927    3.625314
 H         18.577670   -0.447992   -0.789921
 H        -10.319330   -3.686505    0.384101
 H          1.822539    4.483257   -0.260047
 H         14.071524   -3.265423    0.858929
       158
S1: Total Energy = -10849.7360725
 C          5.371735    1.619851   -0.288803
 C          4.791862    2.892001   -0.336097
 C          3.368385    2.914358   -0.360989
 C          2.792538    1.617607   -0.307578
 S          4.079893    0.409741   -0.241211
 C          2.853885    4.234522   -0.501972
 C          3.840428    5.194149   -0.565674
 S          5.465720    4.496458   -0.430289
 C          3.821020    6.665688   -0.623749
 O          4.809074    7.313177   -0.315948
 O          2.711411    7.344682   -1.002969
 C          1.637142    6.765026   -1.755490
 H          1.995024    5.992478   -2.440311
 H          0.872799    6.352783   -1.089374
 H          1.203718    7.587415   -2.327516
 C          1.436048    1.228065   -0.292328
 C          0.309323    2.021031   -0.054097
 C         -0.914989    1.327376   -0.098742
 C         -0.740405   -0.074908   -0.356200
 S          0.967273   -0.461600   -0.578919
 C         -5.439169   -0.381190    0.067893
 C         -4.318753   -1.172247   -0.171501
 C         -3.092011   -0.476536   -0.123618
 C         -3.268027    0.922238    0.139205
 S         -4.978481    1.304913    0.359049
 C         -2.229623    1.845932    0.153792
 C         -1.778432   -0.997008   -0.367893
 H          0.381084    3.064243    0.219299
 H         -4.385963   -2.222958   -0.420164
 C         -2.478798    3.268189    0.418828
 C         -3.203332    3.825440    1.446526
 C         -3.308821    5.244684    1.373485
 C         -2.675040    5.793082    0.290011
 S         -1.924970    4.538895   -0.672444
 H         -3.629039    3.233906    2.249657
 H         -3.835722    5.845024    2.108123
 C         -1.533078   -2.422970   -0.621838
 C         -0.816885   -2.992606   -1.648872
 C         -0.733336   -4.412900   -1.570257
 C         -1.376092   -4.946355   -0.483843
 S         -2.104896   -3.678507    0.473509
 H         -0.385631   -2.410577   -2.456074
 H         -0.218656   -5.024792   -2.304073
 C         -6.797570   -0.790704    0.091742
 C         -7.344565   -2.077630    0.045283
 C         -8.766998   -2.132037    0.101640
 C         -9.371577   -0.861847    0.172821
 S         -8.123778    0.377323    0.177040
 C         -9.254361   -3.475026    0.144700
 C         -8.250091   -4.408398    0.104806
 S         -6.639185   -3.671845   -0.010992
 C         -8.246704   -5.885759    0.037450
 O         -7.265619   -6.482293   -0.371136
 O         -9.323576   -6.612874    0.410069
 C         -2.583066    7.237543   -0.101734
 H         -3.011555    7.420531   -1.094343
 H         -3.133239    7.848729    0.620022
 H         -1.545663    7.593114   -0.120796
 C         -1.500425   -6.387278   -0.087936
 H         -1.068666   -6.578201    0.901811
 H         -0.972447   -7.014401   -0.812697
 H         -2.547114   -6.712480   -0.058174
 C        -10.393923   -6.113213    1.225149
 H        -10.039317   -5.376629    1.949642
 H        -11.185297   -5.682670    0.603702
 H        -10.789103   -6.983491    1.751670
 C        -10.755638   -0.521306    0.217604
 C        -11.832324   -1.290327   -0.184667
 C        -13.098563   -0.658734   -0.022775
 C        -12.975242    0.663640    0.507558
 S        -11.286859    1.059894    0.828855
 C        -17.652303    0.884485    0.086507
 C        -16.614030    1.662071    0.489939
 C        -15.334201    1.022332    0.337149
 C        -15.461358   -0.293352   -0.198278
 S        -17.155609   -0.682513   -0.505615
 C        -14.377771   -1.160925   -0.389647
 C        -14.055568    1.526918    0.694379
 H        -11.717481   -2.257832   -0.654214
 H        -16.740367    2.657740    0.895993
 C        -14.569118   -2.506764   -0.947487
 C        -15.261203   -2.868239   -2.079052
 C        -15.292016   -4.274399   -2.312099
 C        -14.633200   -5.009118   -1.362417
 S        -13.956135   -3.952092   -0.143640
 H        -15.715874   -2.141326   -2.743062
 H        -15.783818   -4.729244   -3.166008
 C        -13.858725    2.882482    1.235632
 C        -13.210578    3.251736    2.389531
 C        -13.159360    4.662658    2.592219
 C        -13.759389    5.387218    1.596680
 S        -14.405542    4.316792    0.373705
 H        -12.800576    2.530011    3.087787
 H        -12.695062    5.127555    3.456143
 C        -14.460358   -6.496657   -1.285613
 H        -14.901255   -6.913661   -0.372142
 H        -14.952051   -6.968428   -2.141710
 H        -13.402998   -6.787800   -1.302729
 C        -13.895169    6.876123    1.477669
 H        -13.406885    7.260643    0.574165
 H        -13.429604    7.358365    2.342652
 H        -14.945385    7.189714    1.441104
 H        -18.705288    1.134614    0.098803
 C          6.740500    1.246567   -0.276181
 C          7.848367    2.076489   -0.142933
 S          7.227520   -0.450161   -0.446228
 C          9.091504    1.400466   -0.180614
 H          7.765333    3.141943    0.023930
 C          8.932570   -0.017052   -0.322572
 C         10.399055    1.959930   -0.031066
 C          9.990450   -0.920349   -0.308257
 C         11.457802    1.050887   -0.016932
 C         10.630992    3.402647    0.103427
 C         11.294572   -0.361795   -0.157719
 C          9.763083   -2.367473   -0.442139
 S         13.166943    1.473129    0.103535
 C         11.403013    4.055813    1.037551
 S          9.963170    4.568602   -1.035957
 C         12.541022   -1.043871   -0.204383
 C          9.050961   -3.032107   -1.411151
 S         10.351096   -3.516702    0.757439
 C         13.642614   -0.222426   -0.077590
 C         11.452454    5.467150    0.854128
 H         11.896042    3.540657    1.854735
 C         10.728601    5.911838   -0.221973
 H         12.623518   -2.105444   -0.394627
 C          8.984676   -4.442496   -1.209800
 H          8.605220   -2.525959   -2.260601
 C          9.635936   -4.873463   -0.084782
 C         15.025171   -0.609415   -0.082849
 H         12.001667    6.137695    1.507181
 C         10.549748    7.318366   -0.709653
 H          8.472198   -5.120270   -1.884866
 C          9.771640   -6.272165    0.438824
 C         15.595676   -1.852787    0.217864
 S         16.294437    0.517765   -0.527117
 H         10.908673    7.442971   -1.738292
 H         11.113785    8.004032   -0.070184
 H          9.497242    7.624927   -0.689658
 H          9.328832   -6.379877    1.436256
 H          9.259644   -6.967597   -0.233028
 H         10.820908   -6.583409    0.509488
 C         17.026150   -1.856354    0.069421
 C         15.104377   -3.111255    0.688420
 C         17.555634   -0.653974   -0.313737
 S         17.715520   -3.427142    0.445025
 C         16.098459   -4.036603    0.869563
 C         16.062504   -5.470017    1.239904
 O         16.985890   -6.206419    0.942777
 O         15.007398   -6.002080    1.896221
 C         14.038968   -5.236458    2.629192
 H         14.477759   -4.331226    3.054566
 H         13.187108   -4.980429    1.991487
 H         13.697717   -5.891061    3.432913
 H         18.586264   -0.378847   -0.488310
 H        -10.303812   -3.720794    0.204265
 H          1.799844    4.460860   -0.556324
 H         14.058913   -3.309898    0.874378
