       122
S0: Total Energy = -8287.80730336
 C          4.682620    1.825617   -0.108742
 C          4.122918    3.090246   -0.081862
 C          2.692258    3.112954   -0.100931
 C          2.116218    1.840803   -0.125177
 S          3.388685    0.639205   -0.112256
 C          2.223475    4.465668   -0.179854
 C          3.199623    5.418483   -0.220375
 S          4.820623    4.701111   -0.103080
 F          0.913454    4.761690   -0.185454
 C          3.127097    6.898883   -0.159941
 O          3.977994    7.532852    0.433898
 O          2.110584    7.554986   -0.751764
 C          1.363982    7.024857   -1.864028
 H          1.895091    6.201055   -2.345876
 H          0.382417    6.691607   -1.525772
 H          1.253343    7.851305   -2.568218
 C          0.730205    1.439236   -0.142753
 C         -0.352002    2.108869    0.372077
 C         -1.591928    1.421274    0.191800
 C         -1.419139    0.164031   -0.457505
 S          0.262090   -0.110535   -0.882817
 C         -6.091124   -0.305271   -0.002507
 C         -5.008922   -0.985718   -0.504478
 C         -3.765923   -0.301843   -0.318470
 C         -3.939017    0.956214    0.328938
 S         -5.623122    1.239322    0.741275
 C         -2.884297    1.822739    0.586903
 C         -2.474862   -0.702774   -0.714965
 H         -0.268084    3.049953    0.897093
 H         -5.087814   -1.922093   -1.043731
 C         -7.469373   -0.727839   -0.015935
 C         -7.990347   -2.002342   -0.146458
 C         -9.418905   -2.073484   -0.098782
 C        -10.033020   -0.828520    0.052425
 S         -8.799123    0.410423    0.123335
 C         -9.844231   -3.442399   -0.134377
 C         -8.838966   -4.362483   -0.203848
 S         -7.243737   -3.584789   -0.289883
 F        -11.143914   -3.780320   -0.126431
 C         -8.869056   -5.832370   -0.400807
 O         -8.019184   -6.380482   -1.075974
 O         -9.845762   -6.573271    0.157060
 C        -10.573329   -6.170490    1.333549
 H        -10.048559   -5.382227    1.877915
 H        -11.571827   -5.832761    1.054480
 H        -10.644057   -7.062563    1.958283
 C        -11.430719   -0.475549    0.129459
 C        -12.499947   -1.130126   -0.427362
 C        -13.758129   -0.499564   -0.169825
 C        -13.612725    0.699412    0.586583
 S        -11.932814    0.987293    1.012122
 C        -18.285671    1.057724    0.220422
 C        -17.244287    1.733396    0.771094
 C        -15.974948    1.099881    0.523613
 C        -16.121716   -0.098912   -0.233086
 S        -17.807368   -0.396163   -0.636608
 C        -15.041873   -0.904441   -0.582344
 C        -14.691625    1.504354    0.934849
 H        -12.397399   -2.017952   -1.035482
 H        -17.354927    2.645173    1.345961
 H        -19.334985    1.320176    0.260807
 C          6.073324    1.445506   -0.119230
 C          7.144416    2.202027    0.288460
 S          6.573221   -0.146732   -0.730128
 C          8.404459    1.541963    0.131085
 H          7.048584    3.181754    0.741122
 C          8.256787    0.225167   -0.393493
 C          9.691226    2.017376    0.450837
 C          9.333298   -0.627693   -0.604184
 C         10.768760    1.164302    0.240596
 C         10.621240   -0.150995   -0.288088
 S         12.451815    1.528945    0.584822
 C         11.880514   -0.810873   -0.448285
 C         12.951690   -0.062773   -0.033079
 H         11.982739   -1.792717   -0.889133
 C         14.353062   -0.420953   -0.062870
 C         14.966072   -1.670413    0.024174
 S         15.588756    0.804219   -0.262867
 C         16.398310   -1.606034   -0.078106
 C         14.552941   -3.024639    0.246700
 C         16.889966   -0.338016   -0.220836
 S         17.153248   -3.193273    0.032820
 C         15.563282   -3.940602    0.306044
 F         13.256311   -3.361124    0.356140
 C         15.527106   -5.421738    0.375316
 O         16.342620   -6.089143   -0.231065
 O         14.579369   -6.044255    1.103909
 C         13.908191   -5.429977    2.220585
 H         14.459005   -4.561843    2.589450
 H         12.898216   -5.137549    1.931659
 H         13.865341   -6.194491    2.998322
 O        -14.502099    2.634591    1.696308
 O        -15.233720   -2.032989   -1.342659
 O         -3.106971    3.007177    1.246274
 O         -2.260701   -1.886276   -1.378955
 O          9.881170    3.264189    0.996421
 O          9.131089   -1.873249   -1.147631
 C        -14.406615    3.854532    0.941569
 H        -13.557638    3.821457    0.249099
 H        -15.327714    4.042801    0.378222
 H        -14.253472    4.651333    1.671621
 C        -15.235403   -3.267268   -0.605238
 H        -14.264797   -3.445511   -0.128174
 H        -16.022149   -3.264346    0.157731
 H        -15.433814   -4.054313   -1.334827
 C         -3.135554    4.174360    0.406057
 H         -2.168918    4.333142   -0.085133
 H         -3.921247    4.088464   -0.353034
 H         -3.352428    5.015460    1.066649
 C         -2.147640   -3.042550   -0.529831
 H         -1.301141   -2.939653    0.158518
 H         -3.067327   -3.201609    0.044288
 H         -1.979768   -3.890570   -1.195672
 C          9.953871    4.335233    0.038293
 H         10.794530    4.187652   -0.649147
 H          9.023506    4.414498   -0.535288
 H         10.107094    5.247863    0.616558
 C          9.183599   -2.962192   -0.209359
 H         10.175814   -3.044646    0.248277
 H          8.428822   -2.836649    0.575206
 H          8.970309   -3.864995   -0.784118
 H         17.913787   -0.002456   -0.306784
       122
T1: Total Energy = -8287.76260225
 C          4.682993    1.869217    0.089672
 C          4.123462    3.148293    0.303202
 C          2.712966    3.206230    0.338139
 C          2.084439    1.916619    0.163163
 S          3.364607    0.687621   -0.050215
 C          2.289008    4.546891    0.511555
 C          3.296695    5.489765    0.589924
 S          4.868410    4.706145    0.514406
 F          0.995465    4.897525    0.621945
 C          3.295911    6.932392    0.885034
 O          4.246968    7.454804    1.440635
 O          2.227935    7.694389    0.558529
 C          1.389954    7.422364   -0.579425
 H          1.839091    6.676145   -1.239005
 H          0.409771    7.082308   -0.243300
 H          1.289727    8.368780   -1.115123
 C          0.748335    1.520863    0.132632
 C         -0.425946    2.282894    0.342309
 C         -1.614686    1.545661    0.235635
 C         -1.388666    0.155526   -0.039963
 S          0.330295   -0.188905   -0.205721
 C         -6.091252   -0.274671    0.093642
 C         -4.950276   -1.036303   -0.105258
 C         -3.745564   -0.301556    0.006007
 C         -3.975703    1.082311    0.276176
 S         -5.693374    1.422770    0.435588
 C         -2.953114    2.007211    0.386859
 C         -2.409319   -0.764030   -0.149525
 H         -0.402489    3.331086    0.594378
 H         -4.970691   -2.085248   -0.374452
 C         -7.450210   -0.718868    0.053625
 C         -7.959111   -2.012764    0.067274
 C         -9.384005   -2.097356    0.036632
 C        -10.018812   -0.850128   -0.021951
 S         -8.798572    0.407829   -0.043410
 C         -9.798146   -3.463889    0.157912
 C         -8.785044   -4.371950    0.275423
 S         -7.197024   -3.586549    0.187427
 F        -11.093152   -3.817871    0.130085
 C         -8.788179   -5.854835    0.276846
 O         -7.882715   -6.472253   -0.250205
 O         -9.800692   -6.532783    0.850712
 C        -10.616631   -5.994910    1.909185
 H        -10.143452   -5.129577    2.378475
 H        -11.596768   -5.720551    1.518075
 H        -10.720351   -6.797646    2.641325
 C        -11.415718   -0.506678   -0.078357
 C        -12.458353   -1.256428   -0.567864
 C        -13.725655   -0.600220   -0.490455
 C        -13.619097    0.713607    0.052339
 S        -11.963703    1.084423    0.508685
 C        -18.264904    0.967859   -0.618529
 C        -17.252942    1.736339   -0.138598
 C        -15.973878    1.078960   -0.204571
 C        -16.082163   -0.233975   -0.748439
 S        -17.744403   -0.608889   -1.183538
 C        -14.986924   -1.079931   -0.894481
 C        -14.713136    1.558356    0.197607
 H        -12.326741   -2.234594   -1.008068
 H        -17.392399    2.733062    0.262785
 H        -19.314327    1.225733   -0.679808
 C          6.033140    1.481395   -0.014851
 C          7.174590    2.274620    0.136834
 S          6.466275   -0.207765   -0.388594
 C          8.387987    1.570888   -0.042506
 H          7.146667    3.324351    0.398490
 C          8.179274    0.182987   -0.320840
 C          9.712138    2.067914    0.040516
 C          9.219300   -0.710333   -0.505777
 C         10.753151    1.170234   -0.143504
 C         10.542529   -0.213487   -0.422101
 S         12.466155    1.550179   -0.064317
 C         11.765575   -0.916275   -0.612946
 C         12.886521   -0.131827   -0.459474
 H         11.811718   -1.959780   -0.890258
 C         14.269670   -0.517493   -0.597607
 C         14.886917   -1.761081   -0.437986
 S         15.482744    0.661546   -1.059685
 C         16.300065   -1.725930   -0.695610
 C         14.501040   -3.077554   -0.026567
 C         16.776876   -0.487796   -1.028474
 S         17.063470   -3.298623   -0.490674
 C         15.512779   -3.993725    0.026783
 F         13.224067   -3.388443    0.255648
 C         15.485559   -5.458089    0.260618
 O         16.239421   -6.194144   -0.346237
 O         14.613330   -5.989262    1.139996
 C         14.061817   -5.255208    2.249942
 H         14.645310   -4.357117    2.464684
 H         13.025835   -4.987707    2.039651
 H         14.104180   -5.932572    3.104712
 O        -14.562605    2.805194    0.759536
 O        -15.139864   -2.324001   -1.457365
 O         -3.226529    3.320204    0.675405
 O         -2.148393   -2.079229   -0.446018
 O          9.962165    3.383314    0.337805
 O          8.960989   -2.024566   -0.807813
 C        -14.428086    3.876426   -0.189923
 H        -13.546637    3.728952   -0.824461
 H        -15.320561    3.958653   -0.820818
 H        -14.308667    4.788602    0.397430
 C        -15.184083   -3.413258   -0.519906
 H        -14.241646   -3.498933    0.033096
 H        -16.011729   -3.285972    0.187114
 H        -15.342876   -4.315412   -1.113189
 C         -3.210007    4.206863   -0.458482
 H         -2.223070    4.220712   -0.933892
 H         -3.965932    3.910221   -1.194152
 H         -3.444867    5.198474   -0.068314
 C         -2.100743   -2.955821    0.694774
 H         -1.302727   -2.655536    1.383012
 H         -3.058743   -2.962796    1.226751
 H         -1.892313   -3.951799    0.300914
 C          9.919815    4.278885   -0.789363
 H         10.677447    4.005076   -1.532025
 H          8.929604    4.274537   -1.258164
 H         10.134273    5.272178   -0.392274
 C          9.103325   -2.941353    0.292152
 H         10.134882   -2.960496    0.661195
 H          8.426697   -2.673803    1.111454
 H          8.836662   -3.924187   -0.099710
 H         17.786665   -0.178974   -1.259171
       122
S1: Total Energy = -8287.74168982
 C          4.672756    1.879788   -0.087752
 C          4.113462    3.155460    0.029984
 C          2.691078    3.204338    0.007625
 C          2.086407    1.921840   -0.108683
 S          3.362439    0.698461   -0.197130
 C          2.253091    4.558023    0.048477
 C          3.247995    5.507088    0.098138
 S          4.839481    4.738876    0.154132
 F          0.950900    4.895716    0.061098
 C          3.222148    6.967834    0.281747
 O          4.140931    7.541406    0.841513
 O          2.164138    7.691186   -0.150483
 C          1.389977    7.328729   -1.308182
 H          1.879744    6.542880   -1.887853
 H          0.396200    7.001111   -1.000631
 H          1.309868    8.233182   -1.915158
 C          0.732650    1.518267   -0.148401
 C         -0.419321    2.254953    0.151795
 C         -1.614949    1.527408    0.030119
 C         -1.396526    0.160958   -0.350185
 S          0.314376   -0.158540   -0.602556
 C         -6.093402   -0.296282   -0.060986
 C         -4.950413   -1.038554   -0.359895
 C         -3.749938   -0.310922   -0.246197
 C         -3.970060    1.054456    0.130811
 S         -5.682440    1.377953    0.377050
 C         -2.949247    1.971626    0.266043
 C         -2.418457   -0.755371   -0.484247
 H         -0.383265    3.277878    0.493406
 H         -4.976788   -2.068433   -0.693175
 C         -7.441683   -0.736179   -0.077002
 C         -7.962584   -2.024700   -0.238140
 C         -9.382337   -2.113204   -0.180165
 C        -10.019101   -0.869514    0.010101
 S         -8.790629    0.387257    0.112492
 C         -9.788876   -3.482170   -0.256226
 C         -8.772305   -4.392766   -0.364488
 S         -7.200119   -3.584353   -0.436092
 F        -11.082128   -3.845694   -0.245454
 C         -8.775028   -5.853542   -0.602624
 O         -7.898788   -6.372478   -1.268621
 O         -9.758477   -6.623437   -0.094754
 C        -10.492978   -6.284447    1.096874
 H         -9.988585   -5.502724    1.669292
 H        -11.500866   -5.963581    0.831767
 H        -10.539019   -7.199853    1.689746
 C        -11.401010   -0.523083    0.110389
 C        -12.506306   -1.233831   -0.322516
 C        -13.744108   -0.575647   -0.085579
 C        -13.571879    0.703519    0.525694
 S        -11.875749    1.033241    0.845519
 C        -18.255785    1.035775    0.296452
 C        -17.191635    1.764584    0.728580
 C        -15.935888    1.102843    0.505888
 C        -16.111485   -0.173271   -0.105595
 S        -17.812285   -0.505894   -0.408762
 C        -15.048204   -1.018364   -0.401690
 C        -14.634220    1.545371    0.820694
 H        -12.431844   -2.179826   -0.838082
 H        -17.280637    2.735420    1.201432
 H        -19.302294    1.307298    0.347500
 C          6.036518    1.488017   -0.119550
 C          7.158523    2.280218    0.107824
 S          6.491964   -0.193052   -0.486662
 C          8.383398    1.583333   -0.005926
 H          7.107325    3.323499    0.392039
 C          8.196800    0.196648   -0.307136
 C          9.701237    2.080974    0.166845
 C          9.246565   -0.695636   -0.426462
 C         10.750836    1.186045    0.048844
 C         10.562674   -0.198746   -0.250361
 S         12.455239    1.568271    0.243056
 C         11.792666   -0.897141   -0.362024
 C         12.905433   -0.111948   -0.129765
 H         11.858523   -1.938207   -0.643041
 C         14.289675   -0.494648   -0.180205
 C         14.898707   -1.750942   -0.053183
 S         15.535751    0.711190   -0.463563
 C         16.327368   -1.699233   -0.196816
 C         14.491512   -3.089300    0.242182
 C         16.825521   -0.442750   -0.407516
 S         17.081523   -3.281107   -0.039665
 C         15.501635   -4.009365    0.313219
 F         13.199471   -3.422208    0.409736
 C         15.465331   -5.483974    0.450819
 O         16.274989   -6.179492   -0.132480
 O         14.522037   -6.072125    1.214259
 C         13.884317   -5.417460    2.327238
 H         14.438330   -4.529638    2.640423
 H         12.862133   -5.146399    2.061120
 H         13.875183   -6.148072    3.138222
 O        -14.418629    2.753643    1.441465
 O        -15.270961   -2.221687   -1.023287
 O         -3.217729    3.256545    0.662759
 O         -2.165223   -2.044764   -0.878711
 O          9.933410    3.393494    0.488741
 O          9.008209   -2.007177   -0.751993
 C        -14.349465    3.880341    0.550549
 H        -13.523335    3.766820   -0.160628
 H        -15.288741    4.005859   -0.000084
 H        -14.173672    4.754030    1.180602
 C        -15.226484   -3.372506   -0.161471
 H        -14.231921   -3.498145    0.281039
 H        -15.973786   -3.290120    0.635786
 H        -15.456465   -4.231282   -0.794326
 C         -3.177105    4.243008   -0.385058
 H         -2.179178    4.305471   -0.832300
 H         -3.913170    4.011733   -1.162976
 H         -3.427286    5.193577    0.088589
 C         -2.075250   -2.999740    0.195450
 H         -1.251634   -2.746374    0.872152
 H         -3.012550   -3.045909    0.760891
 H         -1.882122   -3.964764   -0.275498
 C          9.907181    4.307709   -0.624087
 H         10.686827    4.055076   -1.351306
 H          8.929558    4.300144   -1.118195
 H         10.099340    5.296469   -0.204962
 C          9.097801   -2.935903    0.343796
 H         10.109606   -2.958218    0.763382
 H          8.380690   -2.677696    1.130939
 H          8.852356   -3.914430   -0.071860
 H         17.849824   -0.122946   -0.537397
