       140
S0: Total Energy = -8637.42028127
 C         -4.996008    1.899876    0.245173
 C         -4.449367    3.166395    0.345456
 C         -3.018691    3.205157    0.338828
 C         -2.428187    1.944946    0.214548
 S         -3.689950    0.736636    0.095327
 C         -2.563685    4.548470    0.548698
 C         -3.548890    5.479317    0.709340
 S         -5.164106    4.756811    0.550048
 F         -1.258532    4.858959    0.556583
 C         -3.494941    6.958573    0.801915
 O         -4.370865    7.638087    0.301480
 O         -2.470111    7.565612    1.429945
 C         -1.680513    6.935169    2.457347
 H         -2.186352    6.058907    2.868796
 H         -0.707143    6.652909    2.055482
 H         -1.556506    7.687049    3.238681
 C         -1.040479    1.550286    0.162457
 C          0.039807    2.281444   -0.266095
 C          1.284099    1.574129   -0.209794
 C          1.106570    0.248971    0.286243
 S         -0.569168   -0.084159    0.682829
 C          5.780507   -0.179678   -0.163560
 C          4.688249   -0.898619    0.253119
 C          3.455670   -0.183523    0.135693
 C          3.629024    1.141887   -0.363695
 S          5.330543    1.439981   -0.730007
 C          2.576760    2.039320   -0.561061
 C          2.162288   -0.636007    0.455912
 H         -0.045208    3.295803   -0.628546
 H          4.749982   -1.889984    0.685618
 C          7.155937   -0.610993   -0.181372
 C          7.668863   -1.895195   -0.167777
 C          9.097596   -1.971409   -0.208742
 C          9.721279   -0.721834   -0.238869
 S          8.493672    0.526014   -0.202524
 C          9.513778   -3.341101   -0.290573
 C          8.502284   -4.257125   -0.316116
 S          6.911005   -3.478696   -0.176969
 F         10.810397   -3.684321   -0.311692
 C          8.515880   -5.738720   -0.253430
 O          7.638088   -6.336192    0.340097
 O          9.504475   -6.438271   -0.841874
 C         10.279772   -5.943253   -1.951004
 H          9.788622   -5.096757   -2.435902
 H         11.273668   -5.654790   -1.608123
 H         10.355497   -6.774716   -2.653966
 C         11.119453   -0.361463   -0.274409
 C         12.194610   -1.069337    0.200077
 C         13.454269   -0.404777    0.031458
 C         13.291572    0.861881   -0.602331
 S         11.611618    1.193490   -0.985701
 C         17.966970    1.216881   -0.308933
 C         16.906962    1.922522   -0.778379
 C         15.653282    1.248666   -0.566627
 C         15.813422   -0.016921    0.072126
 S         17.521699   -0.314509    0.414495
 C         14.744563   -0.860879    0.395941
 C         14.362528    1.694535   -0.898030
 H         12.097250   -2.035590    0.673852
 H         16.991728    2.883761   -1.271070
 H         19.012565    1.494235   -0.347654
 C         -6.382090    1.503542    0.239787
 C         -7.471086    2.287097   -0.048973
 S         -6.851136   -0.157379    0.649638
 C         -8.716772    1.591190    0.048033
 H         -7.401066    3.317589   -0.375948
 C         -8.557943    0.216600    0.395234
 C        -10.010325    2.103884   -0.161190
 C         -9.624723   -0.673347    0.544852
 C        -11.081367    1.229538   -0.036543
 C        -10.918079   -0.144450    0.307254
 S        -12.764362    1.639765   -0.313811
 C        -12.179205   -0.825256    0.349794
 C        -13.255792   -0.028650    0.055760
 H        -12.276263   -1.871099    0.603997
 C        -14.657798   -0.387003    0.028959
 C        -15.280523   -1.611626   -0.213678
 S        -15.887870    0.816166    0.360862
 C        -16.713754   -1.545626   -0.122605
 C        -14.876919   -2.935237   -0.586781
 C        -17.197614   -0.299931    0.166238
 S        -17.481590   -3.100021   -0.431846
 C        -15.894387   -3.827274   -0.768481
 F        -13.583111   -3.270401   -0.714146
 C        -15.872266   -5.290030   -1.011275
 O        -16.712389   -6.012272   -0.509512
 O        -14.912046   -5.837284   -1.781954
 C        -14.199288   -5.109612   -2.800696
 H        -14.722835   -4.191471   -3.076368
 H        -13.192033   -4.877293   -2.453984
 H        -14.151108   -5.776940   -3.663074
 O         14.158694    2.894371   -1.538607
 O          1.948049   -1.891755    0.968866
 O        -10.213077    3.412173   -0.527039
 C         14.073217    4.033004   -0.664783
 H         13.235520    3.928209    0.034205
 H         15.003251    4.167374   -0.100740
 H         13.906616    4.897665   -1.309592
 C          1.831850   -2.934466   -0.016338
 H          0.984438   -2.746015   -0.685145
 H          2.750764   -3.022565   -0.606683
 H          1.663339   -3.857676    0.540265
 C        -10.254000    4.345460    0.567466
 H        -11.074912    4.106459    1.253011
 H         -9.306951    4.348205    1.118696
 H        -10.421282    5.326903    0.120913
 H        -18.219713    0.032336    0.280652
 C         14.945523   -2.165762    1.084876
 C         15.752846   -3.163228    0.513282
 C         14.332233   -2.423867    2.322443
 C         15.941273   -4.384225    1.161974
 H         16.220600   -2.985557   -0.450814
 C         14.521286   -3.645216    2.969572
 H         13.717067   -1.656114    2.783492
 C         15.326409   -4.629158    2.391430
 H         16.564441   -5.146398    0.702132
 H         14.043253   -3.825416    3.928574
 H         15.473151   -5.580234    2.895740
 C          2.793642    3.407595   -1.107777
 C          3.638391    4.317627   -0.450853
 C          2.158841    3.812892   -2.293864
 C          3.842891    5.597738   -0.967368
 H          4.122653    4.025109    0.476449
 C          2.363889    5.093261   -2.808354
 H          1.513986    3.114383   -2.819819
 C          3.206604    5.989364   -2.146894
 H          4.495229    6.290775   -0.443189
 H          1.868824    5.388431   -3.729423
 H          3.365777    6.986360   -2.548151
 C         -9.420233   -2.097395    0.930546
 C        -10.009791   -2.615202    2.095951
 C         -8.632722   -2.949289    0.138464
 C         -9.816732   -3.948387    2.458540
 H        -10.609968   -1.963970    2.725284
 C         -8.439994   -4.282411    0.503086
 H         -8.184480   -2.568499   -0.774818
 C         -9.031194   -4.785894    1.663443
 H        -10.276533   -4.331010    3.365611
 H         -7.832554   -4.928736   -0.124533
 H         -8.881502   -5.824126    1.946301
       140
T1: Total Energy = -8637.37614973
 C         -5.004792    1.886255   -0.127199
 C         -4.456128    3.177030   -0.293816
 C         -3.051188    3.236474   -0.420728
 C         -2.415254    1.941568   -0.345281
 S         -3.682792    0.698875   -0.140323
 C         -2.639620    4.577262   -0.618441
 C         -3.646222    5.524159   -0.593812
 S         -5.210297    4.741013   -0.411912
 F         -1.362699    4.922235   -0.858638
 C         -3.663365    6.971518   -0.860625
 O         -4.661820    7.510505   -1.307394
 O         -2.561609    7.721312   -0.632338
 C         -1.607278    7.424042    0.403841
 H         -1.985136    6.663689    1.091182
 H         -0.668928    7.091646   -0.041777
 H         -1.449077    8.358557    0.946513
 C         -1.075474    1.558139   -0.374824
 C          0.086722    2.363351   -0.404755
 C          1.295169    1.646975   -0.413647
 C          1.082020    0.227503   -0.375235
 S         -0.631567   -0.175056   -0.340617
 C          5.789148   -0.139989   -0.320365
 C          4.647369   -0.923355   -0.296826
 C          3.444238   -0.180155   -0.341679
 C          3.657234    1.233884   -0.375307
 S          5.389232    1.585789   -0.398902
 C          2.628817    2.169773   -0.423416
 C          2.114801   -0.681581   -0.348855
 H          0.040206    3.439996   -0.395049
 H          4.661031   -2.002371   -0.204721
 C          7.149500   -0.580654   -0.288453
 C          7.671863   -1.856496   -0.468374
 C          9.095469   -1.939430   -0.393215
 C          9.716326   -0.710869   -0.130690
 S          8.482043    0.525151    0.023831
 C          9.525281   -3.274137   -0.689005
 C          8.525836   -4.159731   -0.975256
 S          6.928832   -3.399634   -0.840668
 F         10.819846   -3.624664   -0.657972
 C          8.541355   -5.627141   -1.187616
 O          7.617702   -6.314603   -0.795322
 O          9.582556   -6.215746   -1.806189
 C         10.447311   -5.531878   -2.734033
 H          9.993123   -4.606928   -3.096176
 H         11.405416   -5.319115   -2.259227
 H         10.590494   -6.220698   -3.568450
 C         11.104528   -0.363023    0.030191
 C         12.151876   -1.165950    0.414790
 C         13.409151   -0.485718    0.507771
 C         13.279627    0.894547    0.173234
 S         11.631351    1.313354   -0.259084
 C         17.910408    1.151597    0.921852
 C         16.880830    1.951437    0.543816
 C         15.624786    1.252202    0.490673
 C         15.751881   -0.127797    0.829643
 S         17.431437   -0.503830    1.231909
 C         14.673378   -1.019393    0.860793
 C         14.357855    1.768254    0.167032
 H         12.032484   -2.214511    0.645334
 H         16.990430    3.000429    0.295787
 H         18.951513    1.426000    1.033639
 C         -6.348391    1.490652    0.023994
 C         -7.488795    2.296859    0.056013
 S         -6.775683   -0.228713    0.196458
 C         -8.693145    1.575125    0.216459
 H         -7.469107    3.374083   -0.045307
 C         -8.497268    0.158174    0.296770
 C        -10.005023    2.096905    0.310103
 C         -9.532684   -0.755746    0.461961
 C        -11.048829    1.198065    0.451429
 C        -10.847976   -0.213600    0.525855
 S        -12.750836    1.619383    0.518831
 C        -12.085646   -0.911358    0.651151
 C        -13.194117   -0.094572    0.674721
 H        -12.149988   -1.986262    0.737248
 C        -14.581151   -0.465241    0.818820
 C        -15.244921   -1.665313    0.545337
 S        -15.740633    0.688469    1.453796
 C        -16.647312   -1.617125    0.856097
 C        -14.917752   -2.941048   -0.017571
 C        -17.072287   -0.411349    1.341915
 S        -17.470120   -3.133779    0.509466
 C        -15.961284   -3.815151   -0.134152
 F        -13.662807   -3.258685   -0.374806
 C        -15.994196   -5.245298   -0.524960
 O        -16.763309   -6.014952    0.018607
 O        -15.162955   -5.710280   -1.477720
 C        -14.600407   -4.883040   -2.514540
 H        -15.142804   -3.939965   -2.611919
 H        -13.548051   -4.690636   -2.304089
 H        -14.696070   -5.457640   -3.437593
 O         14.188450    3.084904   -0.192435
 O          1.871619   -2.030977   -0.278323
 O        -10.240402    3.444485    0.214332
 C         14.018904    3.990075    0.911787
 H         13.130764    3.729488    1.498810
 H         14.900127    3.985924    1.563380
 H         13.890882    4.981452    0.473668
 C          1.888709   -2.714228   -1.545110
 H          1.114729   -2.317904   -2.211884
 H          2.868403   -2.624280   -2.027696
 H          1.683083   -3.762829   -1.324573
 C        -10.136152    4.167488    1.455583
 H        -10.869791    3.801057    2.182240
 H         -9.128425    4.080598    1.876721
 H        -10.345477    5.210668    1.214353
 H        -18.062966   -0.101942    1.643740
 C         14.838345   -2.449466    1.241696
 C         15.703236   -3.289608    0.520833
 C         14.133222   -2.986091    2.332210
 C         15.858128   -4.628749    0.881157
 H         16.243036   -2.894186   -0.334799
 C         14.289010   -4.325184    2.691052
 H         13.472210   -2.344365    2.908099
 C         15.151949   -5.150648    1.966782
 H         16.527024   -5.265363    0.308447
 H         13.739561   -4.721784    3.540450
 H         15.272684   -6.193498    2.246571
 C          2.880860    3.634677   -0.475363
 C          3.642944    4.268451    0.520989
 C          2.359280    4.415538   -1.521510
 C          3.877717    5.642972    0.470955
 H          4.035560    3.683750    1.347846
 C          2.595047    5.789511   -1.569871
 H          1.778784    3.938583   -2.305936
 C          3.354959    6.407790   -0.573762
 H          4.464169    6.116310    1.253643
 H          2.190917    6.375415   -2.390850
 H          3.538958    7.477847   -0.612694
 C         -9.289909   -2.221736    0.564399
 C         -9.689517   -2.934639    1.707187
 C         -8.654457   -2.917855   -0.476970
 C         -9.458354   -4.306783    1.805413
 H        -10.169993   -2.406123    2.525844
 C         -8.423557   -4.290459   -0.376545
 H         -8.355417   -2.383575   -1.374240
 C         -8.824566   -4.988586    0.764094
 H         -9.769096   -4.841978    2.698456
 H         -7.935111   -4.814274   -1.193571
 H         -8.644950   -6.057251    0.841434
       140
S1: Total Energy = -8637.35547596
 C         -5.000627    1.899373   -0.141711
 C         -4.457227    3.175891   -0.316929
 C         -3.039883    3.225482   -0.438244
 C         -2.421675    1.947004   -0.348730
 S         -3.679935    0.723711   -0.120413
 C         -2.620206    4.567190   -0.658946
 C         -3.617328    5.514932   -0.652677
 S         -5.200563    4.749812   -0.465805
 F         -1.338373    4.892843   -0.901809
 C         -3.618189    6.958070   -0.941379
 O         -4.607578    7.500692   -1.403818
 O         -2.509590    7.700229   -0.716575
 C         -1.569512    7.411242    0.334552
 H         -1.963540    6.668176    1.031696
 H         -0.630333    7.059411   -0.094363
 H         -1.405525    8.353672    0.861727
 C         -1.065027    1.553732   -0.382401
 C          0.084806    2.350271   -0.334320
 C          1.295368    1.634922   -0.363162
 C          1.079255    0.216504   -0.417289
 S         -0.633635   -0.176692   -0.455357
 C          5.787720   -0.162591   -0.268736
 C          4.634644   -0.943812   -0.318532
 C          3.440338   -0.199272   -0.347060
 C          3.654218    1.219090   -0.293178
 S          5.388585    1.567390   -0.249981
 C          2.631042    2.155431   -0.310596
 C          2.109891   -0.696390   -0.420632
 H          0.039073    3.424334   -0.251126
 H          4.641997   -2.026300   -0.307183
 C          7.135769   -0.602253   -0.229814
 C          7.661587   -1.894834   -0.330827
 C          9.082064   -1.977151   -0.271016
 C          9.714147   -0.727180   -0.098335
 S          8.477603    0.524718   -0.018072
 C          9.498391   -3.331350   -0.467622
 C          8.489605   -4.235353   -0.667819
 S          6.906717   -3.452793   -0.566015
 F         10.789998   -3.695171   -0.432601
 C          8.487348   -5.712237   -0.764545
 O          7.551527   -6.356480   -0.327718
 O          9.527093   -6.361406   -1.324800
 C         10.386499   -5.773288   -2.320394
 H          9.939266   -4.876932   -2.755886
 H         11.354184   -5.533359   -1.879105
 H         10.509257   -6.533526   -3.094052
 C         11.090514   -0.364094    0.021965
 C         12.181603   -1.161500    0.320853
 C         13.418889   -0.459710    0.398635
 C         13.249301    0.935183    0.139381
 S         11.575038    1.338463   -0.199832
 C         17.902209    1.255583    0.706782
 C         16.838915    2.049112    0.411185
 C         15.599405    1.325487    0.375156
 C         15.768932   -0.066866    0.639322
 S         17.472658   -0.422230    0.953780
 C         14.712212   -0.982443    0.673486
 C         14.306661    1.829552    0.131800
 H         12.096461   -2.222277    0.500886
 H         16.915770    3.111373    0.212094
 H         18.940758    1.549412    0.788896
 C         -6.355138    1.500338    0.000883
 C         -7.487399    2.307770    0.040967
 S         -6.785174   -0.217658    0.146529
 C         -8.695228    1.589944    0.188651
 H         -7.460661    3.386709   -0.040215
 C         -8.505771    0.170612    0.249657
 C        -10.007781    2.114802    0.288926
 C         -9.543531   -0.742417    0.399378
 C        -11.052930    1.218882    0.414949
 C        -10.858940   -0.196752    0.467951
 S        -12.754383    1.645909    0.487702
 C        -12.095452   -0.890024    0.577452
 C        -13.206296   -0.069187    0.613426
 H        -12.163390   -1.965652    0.646351
 C        -14.589431   -0.436472    0.750422
 C        -15.254240   -1.648422    0.512215
 S        -15.759013    0.743529    1.324648
 C        -16.660287   -1.584002    0.802510
 C        -14.927096   -2.943465    0.002005
 C        -17.089744   -0.360185    1.236792
 S        -17.485414   -3.108763    0.503831
 C        -15.973676   -3.819788   -0.096164
 F        -13.670306   -3.282525   -0.329396
 C        -16.010401   -5.260983   -0.436065
 O        -16.805014   -6.003459    0.109853
 O        -15.152647   -5.769620   -1.343262
 C        -14.571991   -4.992315   -2.408124
 H        -15.107991   -4.051911   -2.554726
 H        -13.521529   -4.795498   -2.192287
 H        -14.658114   -5.606409   -3.306512
 O         14.099188    3.158873   -0.151739
 O          1.863241   -2.045603   -0.440595
 O        -10.240196    3.464079    0.213322
 C         13.949991    4.001253    1.004259
 H         13.087927    3.691066    1.605744
 H         14.853162    3.981747    1.624803
 H         13.787455    5.011149    0.623771
 C          1.920198   -2.653121   -1.744935
 H          1.166758   -2.216979   -2.410238
 H          2.914220   -2.535648   -2.190619
 H          1.708482   -3.712503   -1.592647
 C        -10.107261    4.173063    1.460048
 H        -10.828960    3.802411    2.196499
 H         -9.092249    4.076426    1.860848
 H        -10.315376    5.219902    1.234085
 H        -18.084262   -0.039388    1.513186
 C         14.920189   -2.423195    0.980272
 C         15.791347   -3.206199    0.203962
 C         14.251382   -3.029300    2.057883
 C         15.987647   -4.556004    0.497838
 H         16.301754   -2.758243   -0.643690
 C         14.449291   -4.378608    2.350464
 H         13.586764   -2.432976    2.676665
 C         15.317994   -5.146418    1.571472
 H         16.660131   -5.147360   -0.117580
 H         13.928371   -4.828447    3.191232
 H         15.471356   -6.197498    1.799667
 C          2.882280    3.620870   -0.272867
 C          3.625936    4.196418    0.771593
 C          2.378534    4.460422   -1.281825
 C          3.861167    5.571386    0.803964
 H          4.003387    3.565584    1.571132
 C          2.615471    5.834603   -1.248144
 H          1.811753    4.029626   -2.102111
 C          3.357477    6.394665   -0.205026
 H          4.433079    5.999040    1.622833
 H          2.227063    6.466288   -2.042351
 H          3.542306    7.464988   -0.180025
 C         -9.306194   -2.210045    0.480918
 C         -9.718517   -2.939581    1.608798
 C         -8.662694   -2.891813   -0.565177
 C         -9.491437   -4.313554    1.688023
 H        -10.204976   -2.422519    2.431174
 C         -8.436434   -4.266411   -0.483842
 H         -8.354532   -2.344734   -1.451550
 C         -8.849699   -4.980937    0.642186
 H         -9.811619   -4.861567    2.569873
 H         -7.941979   -4.778925   -1.304407
 H         -8.673513   -6.051135    0.704718
