       170
S0: Total Energy = -11604.9274797
 C         15.971977    1.630198    5.644140
 C         15.049630    1.101979    4.741332
 C         15.426301    0.398627    3.548218
 C         16.835535    0.234610    3.277001
 C         17.766648    0.786310    4.220266
 C         17.375356    1.467132    5.375618
 C         14.501205   -0.130818    2.642150
 C         17.226010   -0.446635    2.118438
 C         16.301710   -0.976026    1.212325
 C         14.892713   -0.812976    1.484471
 C         13.963684   -1.362875    0.540952
 C         14.353423   -2.041897   -0.618094
 C         15.758113   -2.203111   -0.888486
 C         16.678255   -1.676457    0.016598
 H         13.440390   -0.006430    2.844901
 H         18.286882   -0.568410    1.914916
 C         18.492362    1.920710    6.153660
 C         15.344840    2.286347    6.754892
 C         16.385688   -2.856645   -1.999816
 C         13.248262   -2.483291   -1.401115
 H         15.892080    2.760434    7.563023
 H         18.399489    2.468076    7.084901
 H         15.839747   -3.331363   -2.808411
 H         13.353622   -3.002030   -2.343668
 C         13.981412    2.264112    6.709405
 C         19.690973    1.589905    5.597997
 C         17.749243   -2.833689   -1.952796
 C         12.023007   -2.163819   -0.858710
 S         19.514828    0.711479    4.102889
 S         13.409272    1.421559    5.274974
 S         18.318572   -1.993942   -0.516077
 S         12.220072   -1.299083    0.671437
 H         20.682360    1.806563    5.973184
 C         18.723776   -3.412627   -2.932973
 H         19.379160   -2.642871   -3.357783
 H         19.366398   -4.170026   -2.468309
 H         18.181927   -3.887647   -3.756285
 C         13.008334    2.844443    7.690249
 H         12.364099    3.600402    7.225353
 H         12.354311    2.075075    8.117908
 H         13.551551    3.321402    8.511542
 C         10.701635   -2.420395   -1.380547
 C         10.240451   -3.389744   -2.275157
 S          9.357928   -1.396812   -0.915463
 C          8.840167   -3.286445   -2.557698
 C         10.803988   -4.493901   -2.994955
 C          8.189021   -2.257089   -1.904213
 S          8.286571   -4.523127   -3.675682
 C          9.936668   -5.167287   -3.805692
 F         12.090870   -4.849050   -2.850990
 C         10.095475   -6.412518   -4.594803
 O          9.170050   -7.193819   -4.705612
 O         11.270072   -6.698342   -5.189853
 C         12.234185   -5.697821   -5.567215
 H         11.786646   -4.701773   -5.596407
 H         13.074250   -5.712756   -4.872053
 H         12.574641   -5.975114   -6.566478
 C          6.795540   -1.886642   -1.945015
 C          5.727863   -2.663266   -2.336433
 S          6.266332   -0.267073   -1.485248
 C          4.474705   -1.986130   -2.267095
 H          5.826925   -3.702731   -2.626407
 C          4.592263   -0.671007   -1.807531
 C          3.167862   -2.494400   -2.589963
 C          3.474071    0.208795   -1.637952
 C          2.065595   -1.654869   -2.433940
 C          2.809895   -3.796427   -3.071831
 C          2.162253   -0.301790   -1.963898
 C          3.593081    1.524464   -1.173608
 S          0.589126   -2.485240   -2.886595
 H          3.525906   -4.590065   -3.257847
 C          1.470936   -3.955450   -3.281157
 C          1.056566    0.539182   -1.804989
 C          2.487458    2.365061   -1.014623
 H          4.580440    1.906303   -0.926432
 C          0.744990   -5.169159   -3.776480
 C          1.176044    1.855201   -1.342298
 H          0.068766    0.155972   -2.048217
 C          2.583553    3.716523   -0.538794
 H          0.012089   -5.530914   -3.045375
 H          0.205153   -4.967155   -4.709359
 H          1.459994   -5.975073   -3.966586
 C          0.057311    2.734380   -1.170409
 C          1.481617    4.555188   -0.378781
 S          4.060618    4.544594   -0.083911
 C          0.174518    4.048721   -0.705851
 S         -1.612214    2.339888   -1.515009
 C          1.840699    5.855106    0.107928
 C          3.179887    6.013207    0.317060
 C         -1.079303    4.717547   -0.610056
 C         -2.150170    3.944021   -1.000792
 H          1.125235    6.649078    0.294741
 C          3.906860    7.225312    0.814950
 H         -1.190271    5.729561   -0.246485
 C         -3.555250    4.274966   -1.010214
 H          4.447628    7.020837    1.746761
 H          4.639242    7.588713    0.084186
 H          3.192648    8.031383    1.007778
 C         -4.205464    5.509843   -1.077698
 S         -4.759908    3.008274   -0.892589
 C         -5.633213    5.406949   -1.034617
 C         -3.817649    6.884938   -1.193565
 C         -6.121016    4.117171   -0.935221
 S         -6.423302    6.972766   -1.133131
 C         -4.844620    7.783955   -1.193903
 F         -2.531540    7.248624   -1.321930
 C         -4.867441    9.249146   -1.421173
 O         -5.795787    9.766090   -2.012735
 O         -3.855158   10.023560   -0.984165
 C         -2.998233    9.664827    0.115805
 H         -3.440338    8.873471    0.725273
 H         -2.024486    9.350366   -0.261139
 H         -2.889251   10.570421    0.715247
 C         -7.488042    3.659647   -0.886816
 C         -8.619413    4.341782   -1.275616
 S         -7.896966    2.064230   -0.252839
 C         -9.824588    3.604159   -1.082963
 H         -8.591232    5.327301   -1.725330
 C         -9.603470    2.332975   -0.544779
 C        -11.173479    4.006640   -1.381626
 C        -10.654230    1.397459   -0.271882
 C        -12.211601    3.112929   -1.121671
 C        -11.634659    5.248165   -1.931022
 C        -12.008553    1.803253   -0.569775
 C        -10.430945    0.122395    0.261734
 S        -13.756051    3.817200   -1.561149
 H        -10.980259    6.071372   -2.197895
 C        -12.988465    5.308938   -2.090448
 C        -13.050065    0.907247   -0.309743
 C        -11.472482   -0.773741    0.520688
 H         -9.411139   -0.183185    0.481837
 C        -13.811885    6.438551   -2.630279
 C        -12.826961   -0.366425    0.226811
 H        -14.069513    1.211221   -0.533686
 C        -11.268939   -2.086556    1.065411
 H        -14.376180    6.140055   -3.521900
 H        -14.535357    6.803309   -1.891317
 H        -13.159720    7.272573   -2.905944
 C        -13.878665   -1.300792    0.502629
 C        -12.306864   -2.980553    1.324464
 S         -9.723249   -2.793565    1.496289
 C        -13.657077   -2.574296    1.035888
 S        -15.586820   -1.019961    0.245120
 C        -11.843887   -4.224659    1.866602
 C        -10.489526   -4.287131    2.021163
 C        -14.859894   -3.319479    1.211469
 C        -15.992375   -2.636893    0.831773
 H        -12.498418   -5.047493    2.134361
 C         -9.664576   -5.418918    2.554247
 H        -14.887103   -4.331525    1.591544
 C        -17.369623   -3.080354    0.848783
 H         -8.943642   -5.781440    1.811704
 H         -9.097018   -5.123675    3.444842
 H        -10.315685   -6.253948    2.829683
 C        -18.009632   -4.028709    1.647304
 S        -18.530874   -2.423693   -0.287493
 C        -19.404627   -4.183836    1.334573
 C        -17.658259   -4.883594    2.742190
 C        -19.841199   -3.382257    0.317135
 S        -20.206832   -5.344979    2.388428
 C        -18.668984   -5.666421    3.221602
 F        -16.422782   -4.883778    3.269584
 H        -20.830342   -3.285028   -0.107453
 C        -18.731512   -6.566110    4.398091
 O        -19.751745   -6.656327    5.053664
 O        -17.652619   -7.288457    4.762011
 C        -16.608522   -7.669923    3.847394
 H        -16.934730   -7.580516    2.808631
 H        -15.723808   -7.055495    4.017551
 H        -16.383690   -8.714278    4.071473
       170
T1: Total Energy = -11604.8828013
 C         16.921237    3.207561    3.003993
 C         15.838851    2.429358    2.594486
 C         15.976142    1.239020    1.804352
 C         17.307791    0.834713    1.417538
 C         18.406635    1.650724    1.850635
 C         18.247706    2.805679    2.620311
 C         14.890535    0.457932    1.393984
 C         17.465460   -0.322018    0.645485
 C         16.380687   -1.103274    0.235145
 C         15.049445   -0.699801    0.623705
 C         13.952928   -1.516624    0.192584
 C         14.110061   -2.673837   -0.577540
 C         15.437311   -3.073249   -0.966521
 C         16.517525   -2.292818   -0.557629
 H         13.887885    0.762130    1.684042
 H         18.468086   -0.624505    0.353939
 C         19.497137    3.442899    2.923235
 C         16.521663    4.343970    3.782795
 C         15.837282   -4.208219   -1.746186
 C         12.872472   -3.308077   -0.885330
 H         17.216937    5.069089    4.192750
 H         19.587967    4.350796    3.508841
 H         15.143312   -4.935711   -2.154131
 H         12.792562   -4.199790   -1.491289
 C         15.173188    4.438314    3.967736
 C         20.566261    2.784616    2.395515
 C         17.185923   -4.299446   -1.932935
 C         11.774363   -2.664013   -0.358312
 S         20.101349    1.359641    1.506037
 S         14.331268    3.110813    3.177934
 S         18.025070   -2.970586   -1.143311
 S         12.265379   -1.232275    0.556620
 H         21.613540    3.045533    2.470790
 C         17.952342   -5.343914   -2.686176
 H         18.524144   -4.910071   -3.515267
 H         18.662971   -5.872178   -2.039291
 H         17.260400   -6.082293   -3.102211
 C         14.408403    5.484363    4.720494
 H         13.698667    6.013734    4.073448
 H         13.835682    5.051720    5.549606
 H         15.101706    6.221476    5.136518
 C         10.376498   -2.998885   -0.484221
 C          9.745451   -4.219040   -0.742599
 S          9.154568   -1.751981   -0.334973
 C          8.318836   -4.122174   -0.809773
 C         10.154397   -5.577387   -0.947758
 C          7.810965   -2.850654   -0.608913
 S          7.554935   -5.672437   -1.120284
 C          9.144402   -6.460003   -1.201153
 F         11.442053   -5.948205   -0.864551
 C          9.138731   -7.936494   -1.336505
 O          8.199593   -8.589079   -0.922594
 O         10.178059   -8.573429   -1.910670
 C         11.064724   -7.951525   -2.859456
 H         10.626205   -7.044310   -3.281329
 H         12.017341   -7.721756   -2.381061
 H         11.215291   -8.687323   -3.651405
 C          6.440736   -2.407428   -0.590286
 C          5.305654   -3.178853   -0.458023
 S          6.028517   -0.699387   -0.767276
 C          4.097285   -2.426551   -0.486031
 H          5.332681   -4.251128   -0.304546
 C          4.315133   -1.050051   -0.636587
 C          2.746647   -2.904405   -0.368743
 C          3.262652   -0.086924   -0.679595
 C          1.703160   -1.979514   -0.411165
 C          2.286329   -4.252937   -0.208024
 C          1.904694   -0.566398   -0.563883
 C          3.484470    1.294158   -0.825515
 S          0.155781   -2.787899   -0.251588
 H          2.944410   -5.113756   -0.153467
 C          0.928867   -4.363794   -0.128997
 C          0.859493    0.360378   -0.602601
 C          2.444092    2.218261   -0.863260
 H          4.507451    1.652176   -0.910138
 C          0.105478   -5.604419    0.039036
 C          1.081176    1.740211   -0.748248
 H         -0.162685    0.001399   -0.515210
 C          2.644729    3.635861   -1.011214
 H         -0.493497   -5.573106    0.957069
 H         -0.586517   -5.749430   -0.799174
 H          0.761090   -6.478641    0.092100
 C          0.032641    2.698929   -0.785871
 C          1.605964    4.561734   -1.045950
 S          4.193063    4.439899   -1.172070
 C          0.246992    4.089883   -0.927533
 S         -1.681923    2.338632   -0.661638
 C          2.068281    5.909277   -1.202377
 C          3.426262    6.018250   -1.285628
 C         -0.934656    4.842369   -0.933290
 C         -2.110237    4.069123   -0.796974
 H          1.411155    6.770975   -1.253732
 C          4.252403    7.257252   -1.452997
 H         -0.960128    5.915933   -1.035221
 C         -3.448325    4.457622   -0.756499
 H          4.948251    7.398322   -0.617309
 H          4.847530    7.227732   -2.373549
 H          3.598841    8.133381   -1.500918
 C         -4.085231    5.756366   -0.815608
 S         -4.719018    3.208405   -0.579971
 C         -5.492201    5.690063   -0.724859
 C         -3.672759    7.102796   -0.947021
 C         -6.042947    4.395670   -0.586675
 S         -6.249235    7.251299   -0.831749
 C         -4.685848    8.047010   -0.934041
 F         -2.387422    7.463758   -1.110755
 C         -4.703218    9.500122   -1.156171
 O         -5.684604   10.048207   -1.630034
 O         -3.617136   10.248600   -0.854178
 C         -2.725266    9.928617    0.228939
 H         -3.142073    9.153315    0.876092
 H         -1.762417    9.604920   -0.168082
 H         -2.598420   10.850544    0.800672
 C         -7.389176    4.000771   -0.474857
 C         -8.536499    4.801291   -0.411494
 S         -7.828941    2.283155   -0.394557
 C         -9.735895    4.069516   -0.304589
 H         -8.505148    5.883205   -0.428455
 C         -9.533191    2.674848   -0.280000
 C        -11.084288    4.571562   -0.217171
 C        -10.594916    1.728175   -0.175393
 C        -12.132713    3.660840   -0.111654
 C        -11.529497    5.933704   -0.223217
 C        -11.947264    2.235050   -0.086503
 C        -10.388589    0.340718   -0.156665
 S        -13.668792    4.498024   -0.019292
 H        -10.864359    6.787313   -0.299885
 C        -12.884089    6.068380   -0.124397
 C        -12.998187    1.324417    0.017617
 C        -11.442488   -0.571389   -0.053920
 H         -9.372449   -0.038879   -0.225885
 C        -13.694249    7.328669   -0.099625
 C        -12.791977   -0.063871    0.038099
 H        -14.014991    1.702915    0.084158
 C        -11.257082   -1.994933   -0.036730
 H        -14.407138    7.369755   -0.931768
 H        -14.268544    7.424251    0.829630
 H        -13.031212    8.195220   -0.178774
 C        -13.855370   -1.014114    0.144235
 C        -12.309186   -2.904723    0.065255
 S         -9.721964   -2.835144   -0.137645
 C        -13.652363   -2.399668    0.160816
 S        -15.558256   -0.631443    0.285058
 C        -11.864971   -4.267839    0.060967
 C        -10.511180   -4.404252   -0.041375
 C        -14.866720   -3.137233    0.263066
 C        -15.990109   -2.344789    0.334369
 H        -12.532167   -5.120210    0.133444
 C         -9.703226   -5.665780   -0.075569
 H        -14.911757   -4.217651    0.267870
 C        -17.377930   -2.741624    0.421799
 H         -9.129279   -5.755593   -1.005619
 H         -8.989864   -5.713880    0.755812
 H        -10.367311   -6.532156   -0.002320
 C        -17.961991   -3.907951    0.918861
 S        -18.643041   -1.692248   -0.186820
 C        -19.395727   -3.913095    0.810385
 C        -17.518409   -5.113183    1.553957
 C        -19.916953   -2.784927    0.240832
 S        -20.118945   -5.367901    1.489683
 C        -18.503821   -6.000979    1.878686
 F        -16.221927   -5.330285    1.831191
 H        -20.948293   -2.522116    0.052557
 C        -18.459231   -7.272430    2.640076
 O        -19.374264   -7.582761    3.378361
 O        -17.397255   -8.095792    2.530186
 C        -16.534945   -8.128292    1.377950
 H        -17.004669   -7.653405    0.513487
 H        -15.589174   -7.636974    1.608895
 H        -16.361939   -9.184892    1.165632
       170
S1: Total Energy = -11604.8621790
 C         16.909199    3.856940    0.360116
 C         15.823370    2.981369    0.359958
 C         15.947960    1.569158    0.133959
 C         17.270431    1.037211   -0.104097
 C         18.370894    1.955216   -0.099666
 C         18.224706    3.328367    0.122689
 C         14.860313    0.691320    0.132836
 C         17.415962   -0.338965   -0.327179
 C         16.330463   -1.217055   -0.327839
 C         15.006683   -0.685519   -0.089711
 C         13.910201   -1.600538   -0.096964
 C         14.053321   -2.980399   -0.319647
 C         15.372507   -3.507848   -0.557051
 C         16.454999   -2.630310   -0.555185
 H         13.865008    1.090713    0.310719
 H         18.411448   -0.736992   -0.506809
 C         19.474375    4.030164    0.076657
 C         16.523571    5.215748    0.609991
 C         15.759612   -4.865578   -0.806030
 C         12.822859   -3.679765   -0.287074
 H         17.223331    6.043976    0.649796
 H         19.574430    5.099570    0.224085
 H         15.061876   -5.695536   -0.844528
 H         12.737060   -4.741635   -0.463782
 C         15.182313    5.381761    0.796561
 C         20.531880    3.208459   -0.173357
 C         17.101763   -5.029236   -0.991002
 C         11.722756   -2.870846   -0.037647
 S         20.055512    1.542968   -0.364296
 S         14.330440    3.847637    0.669798
 S         17.949074   -3.493418   -0.863011
 S         12.232285   -1.183861    0.174524
 H         21.576950    3.474872   -0.259432
 C         17.855641   -6.294240   -1.268200
 H         18.394300   -6.245975   -2.222153
 H         18.593618   -6.507266   -0.485575
 H         17.159339   -7.136853   -1.314831
 C         14.431507    6.648067    1.076225
 H         13.692242    6.863228    0.295316
 H         13.894674    6.599978    2.031239
 H         15.129670    7.489169    1.122384
 C         10.337805   -3.211738    0.034242
 C          9.683312   -4.455676    0.158548
 S          9.121098   -1.942735   -0.068905
 C          8.262038   -4.351868    0.184595
 C         10.072250   -5.822864    0.313322
 C          7.758637   -3.053175    0.081315
 S          7.478107   -5.899386    0.401458
 C          9.044234   -6.722339    0.407587
 F         11.359958   -6.195810    0.397578
 C          9.019784   -8.174446    0.690140
 O          8.100737   -8.665012    1.319452
 O         10.021596   -8.970049    0.263833
 C         10.831431   -8.674776   -0.889310
 H         10.370231   -7.908513   -1.516559
 H         11.824086   -8.353470   -0.572078
 H         10.905642   -9.608979   -1.449100
 C          6.413151   -2.595936    0.085902
 C          5.245575   -3.355000    0.108677
 S          6.033488   -0.865925    0.063828
 C          4.064075   -2.587397    0.109924
 H          5.244203   -4.437808    0.109405
 C          4.308288   -1.194176    0.081336
 C          2.699977   -3.044176    0.130928
 C          3.282877   -0.219864    0.069519
 C          1.676468   -2.098526    0.120392
 C          2.211294   -4.391822    0.163396
 C          1.906272   -0.677668    0.089670
 C          3.533457    1.169617    0.037159
 S          0.112382   -2.883801    0.149750
 H          2.851810   -5.267352    0.178255
 C          0.849884   -4.480786    0.176901
 C          0.886109    0.264997    0.077965
 C          2.514190    2.112568    0.024015
 H          4.565392    1.511023    0.020548
 C         -0.002385   -5.712754    0.211223
 C          1.135807    1.655780    0.045523
 H         -0.145725   -0.076332    0.093221
 C          2.744385    3.533096   -0.012198
 H         -0.640329   -5.740374    1.102641
 H         -0.659137   -5.776900   -0.664559
 H          0.634591   -6.602127    0.223100
 C          0.112156    2.628242    0.030564
 C          1.721043    4.477946   -0.028716
 S          4.309317    4.318419   -0.043399
 C          0.354159    4.023678   -0.006050
 S         -1.612970    2.303193    0.054890
 C          2.210180    5.825159   -0.067204
 C          3.571638    5.914985   -0.079508
 C         -0.819044    4.794910   -0.020764
 C         -1.998913    4.042437    0.005710
 H          1.568634    6.699818   -0.086309
 C          4.423647    7.147060   -0.118496
 H         -0.821728    5.873089   -0.063619
 C         -3.350192    4.461498   -0.011052
 H          5.079347    7.215838    0.757765
 H          5.062799    7.171028   -1.009192
 H          3.786432    8.036235   -0.135403
 C         -3.953266    5.749033    0.033708
 S         -4.631234    3.242026   -0.103733
 C         -5.377832    5.704751   -0.012215
 C         -3.518407    7.100087    0.135873
 C         -5.939503    4.429222   -0.077466
 S         -6.104296    7.293803    0.031953
 C         -4.513166    8.050182    0.185079
 F         -2.217247    7.443826    0.153661
 C         -4.485670    9.520168    0.163827
 O         -5.405163   10.155529   -0.324974
 O         -3.423310   10.190521    0.669109
 C         -2.653065    9.704705    1.783103
 H         -3.141158    8.856597    2.268759
 H         -1.656370    9.417261    1.445962
 H         -2.579404   10.535625    2.488321
 C         -7.306467    4.039880   -0.126655
 C         -8.438520    4.847496   -0.169795
 S         -7.763357    2.328203   -0.136690
 C         -9.653280    4.125726   -0.212251
 H         -8.395961    5.929301   -0.178673
 C         -9.468210    2.730079   -0.201785
 C        -10.996983    4.640867   -0.264654
 C        -10.540519    1.794225   -0.238286
 C        -12.060073    3.740569   -0.302289
 C        -11.426418    6.008483   -0.284765
 C        -11.891378    2.313307   -0.290853
 C        -10.351043    0.402032   -0.226089
 S        -13.588883    4.594638   -0.362278
 H        -10.748554    6.855216   -0.261801
 C        -12.781826    6.157575   -0.336356
 C        -12.954905    1.412442   -0.327235
 C        -11.416282   -0.498665   -0.261127
 H         -9.336842    0.012801   -0.187563
 C        -13.577714    7.426710   -0.370056
 C        -12.765000    0.021149   -0.312939
 H        -13.969345    1.801087   -0.367875
 C        -11.247497   -1.925401   -0.249619
 H        -14.189024    7.499071   -1.277554
 H        -14.254995    7.504599    0.488873
 H        -12.901912    8.286704   -0.347630
 C        -13.839975   -0.917928   -0.347176
 C        -12.312061   -2.825274   -0.282749
 S         -9.718591   -2.780210   -0.192404
 C        -13.653245   -2.307823   -0.330856
 S        -15.544918   -0.519518   -0.397056
 C        -11.882408   -4.193003   -0.261503
 C        -10.527006   -4.342442   -0.213684
 C        -14.875994   -3.032661   -0.379403
 C        -15.995360   -2.229534   -0.425344
 H        -12.561328   -5.039032   -0.280016
 C         -9.731359   -5.611765   -0.179861
 H        -14.930582   -4.112387   -0.397193
 C        -17.384970   -2.612235   -0.507192
 H         -9.056260   -5.691337   -1.040361
 H         -9.117499   -5.682547    0.726021
 H        -10.407081   -6.472011   -0.198825
 C        -18.032697   -3.788897   -0.121156
 S        -18.565744   -1.525213   -1.215300
 C        -19.444933   -3.770773   -0.390319
 C        -17.676556   -5.019113    0.518916
 C        -19.888884   -2.616871   -0.973533
 S        -20.254861   -5.236803    0.152458
 C        -18.701561   -5.904076    0.701431
 F        -16.422518   -5.263113    0.935139
 H        -20.890264   -2.334582   -1.266339
 C        -18.758277   -7.196785    1.423705
 O        -19.757454   -7.518197    2.038249
 O        -17.696702   -8.028520    1.417489
 C        -16.707291   -8.041874    0.372114
 H        -17.068231   -7.535701   -0.526170
 H        -15.788920   -7.571409    0.724950
 H        -16.523047   -9.094541    0.149671
