       128
S0: Total Energy = -8096.05009424
 N         20.063703    1.722254    0.004978
 C         21.491734    1.829344    0.031851
 C         21.944915    0.459465    0.091925
 C         23.102679   -0.321700    0.148684
 N         22.688261   -1.650240    0.189205
 C         21.259358   -1.758348    0.159863
 C         20.805873   -0.389310    0.097984
 C         19.647277    0.392351    0.045179
 O         22.075700    2.913439    0.004341
 O         20.675719   -2.842936    0.186128
 C         18.290728   -0.073467    0.036127
 C         17.911152   -1.412539    0.072846
 C         16.520607   -1.608261    0.058818
 C         15.785568   -0.431918    0.011533
 S         16.857150    0.953555   -0.017846
 H         18.643437   -2.212821    0.110232
 H         16.060654   -2.590329    0.083862
 C         24.464853    0.143874    0.163376
 C         24.843893    1.479822    0.120841
 C         26.246147    1.670289    0.147244
 C         26.945212    0.491503    0.209762
 S         25.898684   -0.881860    0.237713
 H         24.112981    2.280614    0.072469
 H         26.721104    2.644563    0.120960
 C         14.356606   -0.263181   -0.011681
 C         13.630080    0.915356   -0.050657
 C         12.238600    0.680392   -0.060790
 C         11.879025   -0.669161   -0.030100
 C         10.487566   -0.903969   -0.038086
 C          9.761018    0.274830   -0.075266
 S         10.823539    1.698662   -0.101909
 S         13.294455   -1.687187    0.012303
 H         14.089413    1.896906   -0.069755
 H         10.028046   -1.885377   -0.015846
 C         19.252622    2.926227   -0.061266
 H         18.642311    2.948723   -0.969272
 H         18.608765    3.025185    0.818060
 H         19.952138    3.763417   -0.083686
 C         23.500210   -2.853879    0.253526
 H         24.106656   -2.879267    1.163969
 H         24.149008   -2.946321   -0.622736
 H         22.801885   -3.692119    0.268530
 H         28.017031    0.346206    0.241176
 C          8.332504    0.444603   -0.091887
 C          7.598597    1.622908   -0.111488
 S          7.259155   -0.939950   -0.087764
 C          6.208290    1.429704   -0.121845
 H          8.059984    2.604592   -0.116598
 C          5.826409    0.090151   -0.110760
 H          5.476949    2.231616   -0.135751
 C          4.470067   -0.372325   -0.115582
 C          3.311167    0.413503   -0.127734
 N          4.050220   -1.701583   -0.107737
 C          2.860686    1.785969   -0.137383
 C          2.172078   -0.431551   -0.126325
 C          2.622519   -1.803978   -0.114022
 C          4.859143   -2.908919   -0.096703
 N          1.433039    1.683637   -0.140487
 O          3.448863    2.868450   -0.143070
 C          1.013138    0.354351   -0.133437
 O          2.034353   -2.886473   -0.109575
 H          5.480288   -2.966821    0.802360
 H          5.492001   -2.975124   -0.986953
 H          4.158237   -3.745193   -0.097229
 C          0.624263    2.891077   -0.152911
 C         -0.343237   -0.107804   -0.132068
 H         -0.002452    2.944000   -1.048362
 H         -0.003016    2.962491    0.740910
 H          1.325318    3.727184   -0.161091
 C         -0.725677   -1.447289   -0.129190
 S         -1.775649    0.923011   -0.130261
 C         -2.116101   -1.639861   -0.124814
 H          0.005407   -2.249563   -0.128750
 C         -2.849608   -0.461073   -0.123761
 H         -2.577938   -2.621335   -0.120778
 C         -4.277920   -0.289860   -0.116905
 C         -5.002943    0.890390   -0.098964
 S         -5.342552   -1.712362   -0.129700
 C         -6.394623    0.657843   -0.094529
 H         -4.542016    1.871318   -0.087618
 C         -6.756341   -0.691501   -0.108996
 S         -7.808421    1.678724   -0.072163
 C         -8.148202   -0.924055   -0.101873
 C         -8.873001    0.256217   -0.081579
 H         -8.609270   -1.904932   -0.109372
 C        -10.301327    0.428271   -0.066298
 C        -11.033333    1.607159   -0.031242
 S        -11.377128   -0.954383   -0.090039
 C        -12.424156    1.415964   -0.021720
 H        -10.570473    2.587986   -0.011244
 C        -12.808075    0.077476   -0.049792
 H        -13.154127    2.218709    0.006538
 C        -14.165410   -0.383656   -0.042999
 C        -15.322645    0.402571   -0.001115
 N        -14.587153   -1.712114   -0.074966
 C        -15.771397    1.774642    0.048635
 C        -16.463163   -0.441414   -0.005873
 C        -16.015101   -1.813226   -0.053610
 C        -13.780329   -2.919584   -0.128359
 N        -17.199122    1.673423    0.072400
 O        -15.182160    2.856362    0.069510
 C        -17.620721    0.345182    0.039897
 O        -16.604391   -2.895174   -0.075462
 H        -13.140791   -3.014071    0.754614
 H        -13.165974   -2.951083   -1.033368
 H        -14.482757   -3.754398   -0.147600
 C        -18.006086    2.880994    0.124241
 C        -18.978058   -0.115008    0.051445
 H        -18.649761    2.970796   -0.756127
 H        -18.616304    2.916169    1.031875
 H        -17.304044    3.716221    0.136661
 C        -19.363251   -1.452380    0.017481
 S        -20.409098    0.917085    0.109926
 C        -20.755025   -1.642723    0.039121
 H        -18.634209   -2.255643   -0.020649
 C        -21.485009   -0.464272    0.090254
 H        -21.219140   -2.622913    0.020261
 C        -22.915537   -0.289601    0.124722
 C        -23.636267    0.886542    0.209247
 S        -23.984213   -1.707305    0.054539
 C        -25.033140    0.655498    0.218626
 H        -23.174019    1.865609    0.264275
 C        -25.395702   -0.688027    0.142493
 S        -26.451438    1.670802    0.306637
 C        -26.800786   -0.916614    0.153542
 C        -27.489978    0.262379    0.238402
 H        -27.275958   -1.888987    0.102235
 H        -28.563002    0.397957    0.265762
       128
T1: Total Energy = -8096.02098196
 N         20.049938    1.724572    0.011742
 C         21.476756    1.832879    0.036058
 C         21.932435    0.462465    0.077461
 C         23.092903   -0.317285    0.121207
 N         22.680472   -1.646630    0.145804
 C         21.251903   -1.756606    0.118850
 C         20.795911   -0.387633    0.075611
 C         19.633995    0.393354    0.035827
 O         22.060193    2.917608    0.020825
 O         20.669943   -2.842667    0.132919
 C         18.281028   -0.073424    0.024102
 C         17.903303   -1.416011    0.043679
 C         16.516235   -1.615354    0.030336
 C         15.774655   -0.438766    0.000745
 S         16.844086    0.951190   -0.012465
 H         18.638249   -2.214380    0.068497
 H         16.058895   -2.598879    0.043140
 C         24.453688    0.150675    0.138281
 C         24.830486    1.487941    0.112212
 C         26.232380    1.680477    0.137318
 C         26.933904    0.502308    0.182510
 S         25.889825   -0.873365    0.195321
 H         24.097967    2.287913    0.076288
 H         26.705514    2.655894    0.122510
 C         14.350738   -0.276311   -0.016672
 C         13.616848    0.903572   -0.037647
 C         12.231337    0.667268   -0.047734
 C         11.871400   -0.688441   -0.035036
 C         10.488326   -0.927208   -0.043640
 C          9.749842    0.256269   -0.062930
 S         10.814371    1.685977   -0.071298
 S         13.290451   -1.704436   -0.010045
 H         14.074720    1.886007   -0.044083
 H         10.030511   -1.909499   -0.035227
 C         19.237082    2.928181   -0.036895
 H         18.624183    2.961308   -0.942826
 H         18.595517    3.014956    0.845389
 H         19.935278    3.766653   -0.050559
 C         23.494479   -2.849646    0.192816
 H         24.103491   -2.885344    1.101208
 H         24.141069   -2.929952   -0.686281
 H         22.797596   -3.689187    0.199178
 H         28.006061    0.358614    0.209113
 C          8.337100    0.414984   -0.074363
 C          7.587989    1.599452   -0.087213
 S          7.261340   -0.980318   -0.071884
 C          6.213124    1.410121   -0.094152
 H          8.050508    2.580826   -0.090576
 C          5.818687    0.052702   -0.087272
 H          5.481220    2.210922   -0.103357
 C          4.489887   -0.399003   -0.091144
 C          3.298290    0.403276   -0.099555
 N          4.042449   -1.720491   -0.086416
 C          2.852076    1.790495   -0.105899
 C          2.181218   -0.418285   -0.099123
 C          2.627466   -1.805117   -0.091133
 C          4.839359   -2.937203   -0.078985
 N          1.437756    1.706292   -0.108160
 O          3.463455    2.860617   -0.109188
 C          0.989265    0.384428   -0.103977
 O          2.016871   -2.875738   -0.088595
 H          5.461493   -2.998589    0.818728
 H          5.469790   -3.003930   -0.970490
 H          4.132848   -3.768284   -0.079660
 C          0.641124    2.923207   -0.116321
 C         -0.338554   -0.066257   -0.102981
 H          0.015056    2.981417   -1.011473
 H          0.014661    2.993517    0.777718
 H          1.347834    3.754104   -0.121632
 C         -0.734033   -1.424713   -0.100871
 S         -1.781279    0.967337   -0.102569
 C         -2.107814   -1.613616   -0.098733
 H         -0.002092   -2.225525   -0.100247
 C         -2.857928   -0.428238   -0.098647
 H         -2.570779   -2.594793   -0.096422
 C         -4.268832   -0.269283   -0.094539
 C         -5.006983    0.916060   -0.088134
 S         -5.335933   -1.697895   -0.095348
 C         -6.389095    0.679434   -0.083218
 H         -4.547636    1.897662   -0.086040
 C         -6.751702   -0.676746   -0.086126
 S         -7.806615    1.698074   -0.072485
 C         -8.136490   -0.910623   -0.079648
 C         -8.869676    0.271267   -0.071327
 H         -8.596197   -1.892211   -0.079584
 C        -10.291560    0.436090   -0.060829
 C        -11.030982    1.615560   -0.042168
 S        -11.365633   -0.951331   -0.069076
 C        -12.417403    1.420778   -0.033181
 H        -10.570648    2.597748   -0.033978
 C        -12.800108    0.078123   -0.045253
 H        -13.150087    2.221416   -0.016835
 C        -14.152884   -0.383161   -0.036406
 C        -15.314045    0.402911   -0.007678
 N        -14.575307   -1.712717   -0.052946
 C        -15.764863    1.775155    0.023757
 C        -16.451710   -0.441548   -0.005355
 C        -16.001554   -1.814274   -0.034843
 C        -13.767349   -2.920118   -0.088523
 N        -17.191978    1.672708    0.044530
 O        -15.176523    2.857924    0.033213
 C        -17.612432    0.343981    0.027251
 O        -16.591318   -2.896240   -0.045070
 H        -13.130210   -3.002537    0.797378
 H        -13.150360   -2.962636   -0.991280
 H        -14.468824   -3.755874   -0.098989
 C        -18.000386    2.879926    0.078988
 C        -18.967889   -0.118120    0.040477
 H        -18.641657    2.957870   -0.804264
 H        -18.613322    2.925611    0.984327
 H        -17.299418    3.716124    0.082989
 C        -19.351441   -1.456974    0.021792
 S        -20.401071    0.912428    0.082298
 C        -20.742554   -1.648999    0.041848
 H        -18.621009   -2.259427   -0.004435
 C        -21.474964   -0.471095    0.076562
 H        -21.205113   -2.630090    0.033643
 C        -22.905425   -0.298477    0.105098
 C        -23.628406    0.877643    0.172368
 S        -23.971897   -1.718768    0.051028
 C        -25.024819    0.644479    0.181409
 H        -23.167815    1.858069    0.215622
 C        -25.385188   -0.700540    0.122091
 S        -26.444911    1.658652    0.252682
 C        -26.789888   -0.931117    0.132777
 C        -27.481165    0.247797    0.200497
 H        -27.263445   -1.904827    0.093106
 H        -28.554454    0.382043    0.223501
       128
S1: Total Energy = -8096.00170459
 N         20.038155    1.731665    0.011038
 C         21.463111    1.836119    0.037414
 C         21.916769    0.463625    0.077257
 C         23.079469   -0.317734    0.122195
 N         22.663935   -1.645733    0.144295
 C         21.235524   -1.753184    0.114731
 C         20.781570   -0.383297    0.072390
 C         19.616585    0.400889    0.032355
 O         22.050666    2.918821    0.024590
 O         20.651728   -2.838899    0.126323
 C         18.268342   -0.061637    0.018683
 C         17.887270   -1.408188    0.035243
 C         16.505074   -1.607160    0.020880
 C         15.758514   -0.427801   -0.006519
 S         16.830117    0.964342   -0.016392
 H         18.622853   -2.206065    0.058836
 H         16.047374   -2.590586    0.031371
 C         24.438507    0.148835    0.142359
 C         24.818190    1.486567    0.118352
 C         26.219691    1.676590    0.146549
 C         26.920192    0.497328    0.192116
 S         25.874251   -0.877374    0.201413
 H         24.086819    2.287520    0.081769
 H         26.694323    2.651356    0.133670
 C         14.341775   -0.268944   -0.023581
 C         13.603020    0.913923   -0.042375
 C         12.222405    0.677914   -0.052462
 C         11.860277   -0.681762   -0.042157
 C         10.481304   -0.919379   -0.050784
 C          9.739956    0.265576   -0.067551
 S         10.804666    1.696194   -0.073598
 S         13.279742   -1.698745   -0.019427
 H         14.061439    1.896088   -0.047032
 H         10.022978   -1.901507   -0.044158
 C         19.228116    2.937173   -0.037560
 H         18.615985    2.971951   -0.943937
 H         18.585911    3.024680    0.844188
 H         19.927951    3.774272   -0.050129
 C         23.475616   -2.850252    0.190892
 H         24.083160   -2.888174    1.100203
 H         24.123650   -2.930206   -0.687206
 H         22.777281   -3.688591    0.194858
 H         27.992131    0.352496    0.220827
 C          8.329123    0.423582   -0.077946
 C          7.580833    1.608213   -0.088757
 S          7.252823   -0.968297   -0.076886
 C          6.204081    1.416250   -0.095179
 H          8.042708    2.589819   -0.091057
 C          5.813651    0.063834   -0.090074
 H          5.470427    2.216147   -0.102686
 C          4.474836   -0.389978   -0.093814
 C          3.300292    0.404316   -0.099151
 N          4.038738   -1.716058   -0.091942
 C          2.854687    1.784195   -0.101050
 C          2.171134   -0.427943   -0.099830
 C          2.617187   -1.807660   -0.095687
 C          4.840138   -2.928751   -0.088813
 N          1.433680    1.693142   -0.102084
 O          3.455461    2.860389   -0.102156
 C          0.996569    0.366674   -0.101220
 O          2.017178   -2.884227   -0.095469
 H          5.463478   -2.993199    0.808188
 H          5.470408   -2.993030   -0.980946
 H          4.135277   -3.761527   -0.091469
 C          0.632868    2.906184   -0.105981
 C         -0.341530   -0.086299   -0.100657
 H          0.005768    2.967835   -1.000538
 H          0.006482    2.974309    0.788633
 H          1.338274    3.738511   -0.109115
 C         -0.732590   -1.440019   -0.102901
 S         -1.780086    0.946527   -0.095443
 C         -2.107766   -1.632072   -0.100483
 H          0.001420   -2.239595   -0.105500
 C         -2.857713   -0.446205   -0.095764
 H         -2.569729   -2.613645   -0.101343
 C         -4.265232   -0.288599   -0.090520
 C         -5.006875    0.899644   -0.080146
 S         -5.332541   -1.718504   -0.095340
 C         -6.383222    0.665018   -0.075426
 H         -4.546270    1.880657   -0.075301
 C         -6.749363   -0.697142   -0.082465
 S         -7.800108    1.685910   -0.061130
 C         -8.126436   -0.930210   -0.076683
 C         -8.866578    0.256977   -0.064511
 H         -8.587355   -1.911188   -0.080015
 C        -10.276975    0.416127   -0.053706
 C        -11.023637    1.601075   -0.035301
 S        -11.354315   -0.974406   -0.060734
 C        -12.401738    1.407685   -0.025832
 H        -10.561903    2.582602   -0.028108
 C        -12.790476    0.057946   -0.037174
 H        -13.134936    2.207881   -0.009972
 C        -14.134481   -0.395808   -0.028417
 C        -15.301871    0.397355   -0.001319
 N        -14.567411   -1.723027   -0.043310
 C        -15.748098    1.773312    0.027966
 C        -16.436084   -0.438789    0.001212
 C        -15.990627   -1.816469   -0.026118
 C        -13.765142   -2.934709   -0.076230
 N        -17.174165    1.677509    0.047397
 O        -15.154083    2.852897    0.036568
 C        -17.602427    0.352101    0.031648
 O        -16.588772   -2.893339   -0.035367
 H        -13.128802   -3.017361    0.810104
 H        -13.148283   -2.981062   -0.978776
 H        -14.469859   -3.767627   -0.085232
 C        -17.977472    2.888509    0.079241
 C        -18.951744   -0.105809    0.043975
 H        -18.617220    2.967058   -0.804996
 H        -18.591132    2.937156    0.983874
 H        -17.273443    3.722033    0.082940
 C        -19.340435   -1.448411    0.026441
 S        -20.385307    0.927825    0.083157
 C        -20.727619   -1.636902    0.044009
 H        -18.611052   -2.251806    0.001992
 C        -21.461612   -0.455554    0.075708
 H        -21.192405   -2.616962    0.034702
 C        -22.887665   -0.284187    0.100344
 C        -23.612516    0.895059    0.143318
 S        -23.955744   -1.705782    0.075499
 C        -25.006690    0.662184    0.156598
 H        -23.151486    1.875927    0.165147
 C        -25.367920   -0.685187    0.124348
 S        -26.426961    1.678120    0.205804
 C        -26.771770   -0.914463    0.138456
 C        -27.462784    0.266482    0.181553
 H        -27.246126   -1.888350    0.118238
 H        -28.536119    0.401072    0.200997
