       130
S0: Total Energy = -9505.05276948
 C         -3.957446    3.488918    0.090431
 C         -4.789111    4.596796    0.125195
 C         -6.183464    4.289612    0.127411
 C         -6.436368    2.914680    0.098081
 S         -4.928674    2.029513    0.062908
 C         -6.999181    5.466750    0.154826
 C         -6.249372    6.610415    0.169856
 S         -4.491024    6.313310    0.184639
 C         -6.625875    8.041283    0.291033
 O         -5.822662    8.852050    0.714752
 O         -7.855546    8.478933   -0.050859
 C         -8.793543    7.732655   -0.842402
 H         -8.289351    7.110495   -1.584867
 H         -9.432512    7.116945   -0.202993
 H         -9.407349    8.481522   -1.345279
 C        -10.573128   -0.386918    0.069560
 C        -10.287342   -1.724339   -0.004485
 C        -11.443003   -2.572507    0.006026
 C        -12.651449   -1.819001    0.079029
 S        -12.318221   -0.089345    0.159701
 C        -14.828939   -5.977879   -0.133382
 C        -15.136415   -4.658253   -0.060999
 C        -13.974308   -3.805308   -0.064750
 C        -12.766823   -4.560361   -0.136567
 S        -13.110092   -6.289197   -0.209801
 C        -11.489863   -3.984457   -0.098973
 C        -13.926004   -2.393587    0.041237
 H         -9.276438   -2.105866   -0.082639
 H        -16.151051   -4.286121    0.004288
 C        -10.277573   -4.817141   -0.167831
 C         -9.951862   -5.770315   -1.102224
 C         -8.713802   -6.428882   -0.842196
 C         -8.083226   -5.995013    0.293816
 S         -9.028426   -4.745745    1.071152
 H        -10.573180   -5.979334   -1.966318
 C        -15.137371   -1.557680    0.111279
 C        -15.472338   -0.622774    1.060437
 C        -16.705950    0.043983    0.798024
 C        -17.323353   -0.366610   -0.353627
 S        -16.370969   -1.602987   -1.143336
 H        -14.861732   -0.433107    1.936710
 C         -6.778691   -6.456770    0.872165
 H         -6.902136   -6.873759    1.878890
 H         -6.349571   -7.236522    0.235500
 H         -6.050575   -5.639756    0.943090
 C        -18.620605    0.108039   -0.938029
 H        -18.485278    0.543856   -1.935225
 H        -19.056184    0.876118   -0.291633
 H        -19.348966   -0.706314   -1.032654
 H        -15.516863   -6.813486   -0.146553
 C         -9.652569    0.722571    0.079667
 C         -9.923366    2.078910    0.085182
 S         -7.912476    0.506925    0.089292
 H        -10.925085    2.495039    0.080027
 C         -7.718052    2.265040    0.092978
 C         -2.522837    3.502423    0.084981
 S         -1.515954    2.053164    0.064671
 C         -0.500416    4.398054    0.090474
 C         -0.089784    3.078371    0.070207
 H          0.178040    5.244311    0.095980
 C          1.248918    2.543442    0.059724
 C          1.638591    1.233621   -0.044237
 S          2.637422    3.635185    0.197294
 C          3.057415    1.041445   -0.019154
 H          0.934621    0.417686   -0.154267
 C          3.757967    2.278381    0.097556
 C          3.775221   -0.175069   -0.145677
 C          5.152400    2.383687    0.084701
 C          5.169639   -0.069979   -0.157082
 C          3.110324   -1.483890   -0.261193
 C          5.870169    1.166773   -0.040354
 C          5.817918    3.692116    0.198936
 S          6.290088   -1.427465   -0.252249
 C          3.284923   -2.443717   -1.228680
 S          1.974807   -2.060710    0.954199
 C          7.288733    0.974085   -0.008128
 C          5.638783    4.656277    1.161394
 S          6.960981    4.262628   -1.012358
 C          7.678541   -0.336117   -0.106090
 C          2.513195   -3.623362   -1.011352
 H          3.932252   -2.299381   -2.087020
 C          1.747346   -3.582923    0.123636
 H          7.992401    1.789522    0.107493
 C          6.412976    5.834036    0.943502
 H          4.986249    4.516788    2.016559
 C          7.185189    5.788132   -0.186990
 C          9.016851   -0.871456   -0.098262
 C          0.820869   -4.632062    0.662500
 C          8.114695    6.834591   -0.725758
 C          9.426468   -2.191901   -0.069146
 S         10.443154    0.148695   -0.123713
 H          1.123927   -4.972414    1.659924
 H          0.821152   -5.500117   -0.003736
 H         -0.209990   -4.266223    0.740418
 H          7.815932    7.171273   -1.725694
 H          8.111909    7.705185   -0.062903
 H          9.145683    6.467963   -0.797808
 H          8.745084   -3.035637   -0.045846
 C         11.453030   -1.302399   -0.082402
 C         12.889870   -1.260824   -0.074211
 C         13.767750   -2.347999   -0.060329
 S         13.793229    0.236503   -0.076570
 C         15.140360   -1.951223   -0.056109
 C         13.613903   -3.771863   -0.041426
 C         15.341835   -0.582660   -0.061798
 S         16.223144   -3.319084   -0.057889
 C         14.819013   -4.418266   -0.020402
 C         16.614127    0.092251   -0.062246
 C         15.169944   -5.859197   -0.086250
 S         16.811518    1.846531   -0.071321
 O         16.266398   -6.205625   -0.485803
 O         14.292477   -6.816735    0.280494
 C         18.821508    0.280090   -0.059063
 C         18.530496    1.615689   -0.066743
 C         13.105034   -6.579963    1.053069
 H         19.823836   -0.132472   -0.055382
 H         19.208132    2.457798   -0.070279
 H         13.244820   -5.767021    1.768720
 H         12.255886   -6.365859    0.397829
 H         12.917302   -7.512522    1.587514
 H        -17.127356    0.803176    1.449292
 H         -8.299020   -7.200144   -1.483432
 H         -8.077226    5.417083    0.180649
 H          2.520811   -4.476671   -1.682086
 H          6.401778    6.690450    1.610143
 H         12.643445   -4.244208   -0.062319
 N         17.749328   -0.571907   -0.056502
 N         10.763883   -2.427237   -0.060120
 N         -1.839205    4.629571    0.098806
 N         -8.860901    2.924322    0.092265
       130
T1: Total Energy = -9505.01293310
 C          3.928916    3.444455   -0.129983
 C          4.788095    4.570087   -0.180217
 C          6.160364    4.274384   -0.181164
 C          6.432393    2.861900   -0.134179
 S          4.901120    1.955624   -0.086494
 C          6.972340    5.434691   -0.225542
 C          6.222450    6.596167   -0.255176
 S          4.482425    6.271509   -0.255298
 C          6.563163    8.027905   -0.375305
 O          5.709177    8.841365   -0.688483
 O          7.815534    8.486989   -0.151449
 C          8.857157    7.729335    0.478604
 H          8.472040    7.121053    1.300513
 H          9.376181    7.098910   -0.249544
 H          9.556180    8.470469    0.869319
 C         10.555987   -0.377416   -0.061600
 C         10.289800   -1.731896    0.006044
 C         11.451284   -2.558512    0.015619
 C         12.654544   -1.788370   -0.030044
 S         12.303653   -0.061209   -0.114682
 C         14.879355   -5.920031    0.217252
 C         15.169319   -4.594399    0.156853
 C         13.996888   -3.759823    0.139284
 C         12.798627   -4.531622    0.182569
 S         13.165502   -6.256064    0.254933
 C         11.515058   -3.973960    0.117503
 C         13.932160   -2.345733    0.035444
 H          9.282094   -2.124112    0.066277
 H         16.179693   -4.207731    0.114452
 C         10.314124   -4.821866    0.156256
 C          9.994874   -5.802639    1.065120
 C          8.768423   -6.471084    0.780326
 C          8.140020   -6.018321   -0.349908
 S          9.071982   -4.737442   -1.089591
 H         10.611397   -6.022705    1.929829
 C         15.135182   -1.496018   -0.006078
 C         15.482203   -0.558386   -0.948138
 C         16.701257    0.122829   -0.656624
 C         17.295107   -0.279506    0.510245
 S         16.338311   -1.526120    1.278201
 H         14.890701   -0.376581   -1.839066
 C          6.846199   -6.483771   -0.948762
 H          6.982674   -6.874188   -1.964386
 H          6.423477   -7.284559   -0.334374
 H          6.107707   -5.675043   -1.005083
 C         18.571934    0.210892    1.125790
 H         18.406878    0.645754    2.118885
 H         19.014160    0.983624    0.489558
 H         19.307268   -0.594753    1.239081
 H         15.579287   -6.745332    0.241961
 C          9.623965    0.695666   -0.089092
 C          9.883769    2.078520   -0.136286
 S          7.880059    0.461352   -0.068833
 H         10.890479    2.485794   -0.156678
 C          7.671422    2.238041   -0.123643
 C          2.533071    3.459221   -0.121877
 S          1.518196    1.998197   -0.073897
 C          0.512238    4.364638   -0.142812
 C          0.092059    3.026168   -0.099546
 H         -0.177603    5.202635   -0.165342
 C         -1.237671    2.514457   -0.081995
 C         -1.639163    1.195318   -0.009395
 S         -2.628160    3.614778   -0.161917
 C         -3.051537    1.012471   -0.018563
 H         -0.936035    0.374966    0.066169
 C         -3.750771    2.257578   -0.085807
 C         -3.774689   -0.207786    0.081328
 C         -5.141561    2.367111   -0.046107
 C         -5.166820   -0.096294    0.119944
 C         -3.113847   -1.520788    0.143267
 C         -5.863712    1.147469    0.052824
 C         -5.804861    3.680134   -0.108705
 S         -6.293273   -1.450736    0.188048
 C         -3.292830   -2.518897    1.071205
 S         -1.979228   -2.052276   -1.093849
 C         -7.280552    0.963683    0.037084
 C         -5.642664    4.670577   -1.047130
 S         -6.919312    4.219297    1.142847
 C         -7.677342   -0.348929    0.100076
 C         -2.525540   -3.691109    0.806715
 H         -3.938503   -2.406691    1.935509
 C         -1.758956   -3.607542   -0.325755
 H         -7.981460    1.785946   -0.040476
 C         -6.407193    5.844225   -0.778959
 H         -5.009172    4.553358   -1.919789
 C         -7.154883    5.768599    0.366346
 C         -9.017412   -0.874753    0.097336
 C         -0.836676   -4.637583   -0.906881
 C         -8.067774    6.802513    0.955436
 C         -9.435193   -2.193693    0.064433
 S        -10.438257    0.153334    0.134571
 H         -1.140251   -4.934290   -1.917960
 H         -0.841670   -5.532707   -0.277558
 H          0.195742   -4.273178   -0.968361
 H         -7.746141    7.107984    1.958268
 H         -8.074839    7.692422    0.318801
 H         -9.098701    6.438119    1.038552
 H         -8.758576   -3.041118    0.034410
 C        -11.456128   -1.292241    0.093987
 C        -12.891800   -1.243498    0.094761
 C        -13.775316   -2.326655    0.078029
 S        -13.787955    0.258473    0.112060
 C        -15.145677   -1.923027    0.083010
 C        -13.628847   -3.750935    0.048503
 C        -15.340335   -0.553324    0.098251
 S        -16.235487   -3.285152    0.080871
 C        -14.837545   -4.390915    0.028901
 C        -16.609358    0.127430    0.107246
 C        -15.194626   -5.830786    0.087249
 S        -16.798889    1.882378    0.125845
 O        -16.288977   -6.175203    0.494032
 O        -14.324395   -6.789017   -0.294302
 C        -18.815817    0.324824    0.112841
 C        -18.518690    1.659163    0.126317
 C        -13.144694   -6.551367   -1.078524
 H        -19.820000   -0.083183    0.110607
 H        -19.192574    2.504227    0.136640
 H        -13.288214   -5.730768   -1.784613
 H        -12.286904   -6.348230   -0.431126
 H        -12.968356   -7.479720   -1.624057
 H         17.129496    0.886315   -1.298312
 H          8.359454   -7.262743    1.399979
 H          8.049355    5.378135   -0.251007
 H         -2.536417   -4.570575    1.442589
 H         -6.406768    6.719309   -1.420924
 H        -12.660951   -4.228834    0.061558
 N        -17.747552   -0.531751    0.102068
 N        -10.772700   -2.421368    0.062336
 N          1.825062    4.602287   -0.154615
 N          8.847697    2.910552   -0.155061
       130
S1: Total Energy = -9504.99187334
 C          3.933570    3.495925   -0.127717
 C          4.784224    4.608238   -0.177671
 C          6.167922    4.298918   -0.184824
 C          6.424629    2.907942   -0.142218
 S          4.903653    2.016952   -0.092169
 C          6.987632    5.463733   -0.229922
 C          6.247413    6.622904   -0.253266
 S          4.492684    6.317775   -0.248536
 C          6.600175    8.051855   -0.372771
 O          5.752763    8.872499   -0.685343
 O          7.856294    8.501965   -0.149040
 C          8.893913    7.736082    0.477360
 H          8.505898    7.127039    1.297273
 H          9.408247    7.104701   -0.253303
 H          9.597943    8.471718    0.869653
 C         10.535166   -0.386483   -0.071060
 C         10.252099   -1.733746    0.012545
 C         11.402010   -2.576676    0.020577
 C         12.615635   -1.824006   -0.042646
 S         12.284187   -0.093781   -0.142697
 C         14.789954   -5.982441    0.232567
 C         15.095422   -4.660547    0.156331
 C         13.934114   -3.811516    0.140983
 C         12.726448   -4.566379    0.201714
 S         13.072782   -6.295244    0.287185
 C         11.448987   -3.992963    0.138657
 C         13.886195   -2.396922    0.021090
 H          9.239791   -2.111106    0.088362
 H         16.110278   -4.287542    0.100415
 C         10.239185   -4.824710    0.195583
 C          9.925345   -5.808685    1.104142
 C          8.687172   -6.461790    0.838281
 C          8.042717   -5.994961   -0.277553
 S          8.973776   -4.719031   -1.026154
 H         10.554241   -6.039990    1.956838
 C         15.099376   -1.563856   -0.039047
 C         15.444381   -0.630718   -0.986682
 C         16.675969    0.035048   -0.713886
 C         17.282047   -0.374067    0.444412
 S         16.321422   -1.608343    1.227213
 H         14.842285   -0.441945   -1.868959
 C          6.733221   -6.443141   -0.854762
 H          6.846562   -6.828314   -1.875276
 H          6.313667   -7.243493   -0.237629
 H          6.002407   -5.626336   -0.892352
 C         18.573633    0.101138    1.040678
 H         18.428450    0.538953    2.035601
 H         19.015930    0.867807    0.397192
 H         19.300638   -0.713356    1.144191
 H         15.479741   -6.816126    0.259842
 C          9.618125    0.707980   -0.100661
 C          9.889844    2.075176   -0.145874
 S          7.871882    0.496206   -0.083373
 H         10.896826    2.480638   -0.164424
 C          7.682440    2.265625   -0.134514
 C          2.525474    3.511338   -0.114720
 S          1.515265    2.052693   -0.073293
 C          0.506058    4.417299   -0.122992
 C          0.082905    3.082817   -0.087108
 H         -0.179682    5.258943   -0.138842
 C         -1.239602    2.572202   -0.069349
 C         -1.639385    1.240263   -0.009606
 S         -2.635608    3.659296   -0.128660
 C         -3.037561    1.049829   -0.021307
 H         -0.927507    0.427797    0.063907
 C         -3.751995    2.292737   -0.067714
 C         -3.756253   -0.187256    0.068992
 C         -5.136697    2.392191   -0.008921
 C         -5.143404   -0.086253    0.125673
 C         -3.082892   -1.490105    0.106377
 C         -5.854794    1.155610    0.080781
 C         -5.813227    3.695272   -0.047926
 S         -6.262639   -1.450707    0.174491
 C         -3.292452   -2.527900    0.986486
 S         -1.889933   -1.964421   -1.100430
 C         -7.255771    0.966640    0.062367
 C         -5.623809    4.722589   -0.943228
 S         -6.981975    4.179241    1.177531
 C         -7.654778   -0.361025    0.109561
 C         -2.505305   -3.681367    0.709376
 H         -3.970231   -2.453693    1.829842
 C         -1.692050   -3.546952   -0.386424
 H         -7.964364    1.782352   -0.010278
 C         -6.408513    5.877808   -0.662794
 H         -4.960081    4.641744   -1.797124
 C         -7.198979    5.753843    0.450154
 C         -8.982876   -0.875130    0.104901
 C         -0.738780   -4.547225   -0.968522
 C         -8.141060    6.759093    1.042107
 C         -9.405251   -2.204951    0.087169
 S        -10.410107    0.152442    0.116460
 H         -0.998848   -4.805376   -2.002005
 H         -0.761846   -5.466279   -0.375353
 H          0.291812   -4.172876   -0.973596
 H         -7.857782    7.029951    2.066157
 H         -8.132943    7.671205    0.437963
 H         -9.170747    6.383651    1.074902
 H         -8.722825   -3.048827    0.075722
 C        -11.425901   -1.300676    0.089440
 C        -12.847591   -1.260144    0.080527
 C        -13.734352   -2.351571    0.063609
 S        -13.752642    0.244247    0.085201
 C        -15.102202   -1.950485    0.058347
 C        -13.584020   -3.770865    0.042954
 C        -15.303402   -0.578372    0.066597
 S        -16.189111   -3.312860    0.055468
 C        -14.793332   -4.418382    0.019247
 C        -16.571015    0.095022    0.066949
 C        -15.155351   -5.854075    0.077666
 S        -16.765686    1.851643    0.082243
 O        -16.267114   -6.192806    0.443028
 O        -14.274203   -6.821389   -0.258025
 C        -18.778204    0.286997    0.060863
 C        -18.484232    1.623597    0.073965
 C        -13.064175   -6.597170   -0.997114
 H        -19.782126   -0.121889    0.053949
 H        -19.161038    2.466389    0.079377
 H        -13.182243   -5.796689   -1.730794
 H        -12.234346   -6.371732   -0.320974
 H        -12.860137   -7.538349   -1.510163
 H         17.104144    0.792793   -1.362386
 H          8.280890   -7.252621    1.460783
 H          8.064138    5.399559   -0.260024
 H         -2.534027   -4.584936    1.309644
 H         -6.392399    6.775462   -1.272296
 H        -12.614930   -4.245558    0.064672
 N        -17.710531   -0.566911    0.056798
 N        -10.729715   -2.435472    0.078155
 N          1.823577    4.651481   -0.137802
 N          8.846659    2.921368   -0.164369
