       130
S0: Total Energy = -9505.04254889
 C          3.942526    3.657269    0.008404
 C          4.812696    4.714857   -0.195309
 C          6.201486    4.364097   -0.166934
 C          6.419925    3.006623    0.072629
 S          4.883775    2.194816    0.267285
 C          7.049439    5.486215   -0.445499
 C          6.346492    6.638933   -0.655124
 S          4.583049    6.411830   -0.566193
 C          6.761297    8.005149   -1.059660
 O          5.959188    8.757486   -1.581183
 O          8.023874    8.443120   -0.875424
 C          8.979622    7.830104    0.003708
 H          8.497037    7.391678    0.880010
 H          9.564083    7.073941   -0.528905
 H          9.644269    8.636783    0.316322
 C         10.462774   -0.411601    0.165701
 C         10.191772   -1.701837   -0.203625
 C         11.334590   -2.564382   -0.158992
 C         12.501670   -1.869087    0.279585
 S         12.157239   -0.170346    0.601121
 C         14.665964   -6.022871   -0.129509
 C         14.946529   -4.748322    0.241810
 C         13.797983   -3.878430    0.193077
 C         12.630993   -4.572072   -0.245877
 S         12.991521   -6.268934   -0.568192
 C         11.389861   -3.952881   -0.438345
 C         13.741065   -2.491220    0.470737
 H          9.203136   -2.042155   -0.487893
 H         15.935221   -4.417270    0.533388
 C         10.221238   -4.717835   -0.903570
 C          9.698616   -5.875480   -0.379575
 C          8.582112   -6.381808   -1.108221
 C          8.242854   -5.625523   -2.198829
 S          9.318372   -4.254054   -2.342473
 H         10.090482   -6.340909    0.518299
 C         14.909959   -1.723628    0.935321
 C         15.445166   -0.579080    0.396257
 C         16.556626   -0.065800    1.128431
 C         16.879110   -0.804451    2.235849
 S         15.793828   -2.167169    2.391502
 H         15.065614   -0.127121   -0.513815
 C          7.136107   -5.852600   -3.185242
 H          7.517168   -5.979661   -4.205597
 H          6.584463   -6.758842   -2.917088
 H          6.425755   -5.017298   -3.202524
 C         17.976552   -0.566333    3.230104
 H         17.585204   -0.416476    4.243489
 H         18.538042    0.330413    2.950636
 H         18.680551   -1.406162    3.271614
 H         15.351406   -6.859285   -0.177308
 C          9.565579    0.715159    0.236209
 S          7.862839    0.605773   -0.223070
 C          7.669900    2.301895    0.191498
 C          2.503546    3.652399    0.032616
 S          1.543497    2.188922   -0.098531
 C          0.078703    3.171740    0.017686
 C         -1.244786    2.600050   -0.012888
 C         -1.610640    1.283167   -0.104991
 S         -2.632251    3.687475    0.077413
 C         -3.027510    1.080437   -0.110414
 H         -0.895737    0.470737   -0.154799
 C         -3.736456    2.316190   -0.005242
 C         -3.730257   -0.150743   -0.153687
 C         -5.130758    2.397920    0.072619
 C         -5.124609   -0.069089   -0.076147
 C         -3.050523   -1.451502   -0.272200
 C         -5.833430    1.166507    0.028528
 C         -5.810687    3.698220    0.192690
 S         -6.229105   -1.440517   -0.159213
 C         -3.186744   -2.558231    0.530533
 S         -1.948638   -1.807955   -1.598418
 C         -7.250112    0.964057    0.021264
 C         -5.668530    4.808861   -0.603719
 S         -6.920529    4.049203    1.513874
 C         -7.616671   -0.352533   -0.070966
 C         -2.412077   -3.676102    0.101471
 H         -3.809417   -2.564844    1.418617
 C         -1.682332   -3.441543   -1.033799
 H         -7.964671    1.776925    0.069420
 C         -6.444921    5.925130   -0.174005
 H         -5.040035    4.819940   -1.487613
 C         -7.181861    5.685815    0.955625
 C         -8.941800   -0.920408   -0.102544
 C         -0.765571   -4.377230   -1.764176
 C         -8.101450    6.618992    1.685575
 S        -10.402214    0.066000    0.018680
 H         -1.099159   -4.556252   -2.793346
 H         -0.736561   -5.341350   -1.247404
 H          0.259099   -3.989813   -1.814428
 H         -7.773093    6.792481    2.717347
 H         -8.126284    7.585678    1.173490
 H         -9.126894    6.232758    1.728369
 C        -11.367781   -1.394257   -0.119921
 C        -12.808341   -1.392065   -0.101530
 C        -13.677593   -2.391639    0.335906
 S        -13.734607   -0.038235   -0.706444
 C        -15.059412   -2.041436    0.182786
 C        -13.510018   -3.671999    0.959244
 C        -15.283936   -0.787978   -0.353934
 S        -16.116884   -3.292413    0.807773
 C        -14.700543   -4.277721    1.247609
 C        -16.536799   -0.124733   -0.629583
 C        -15.037426   -5.535674    1.959560
 S        -16.692182    1.614955   -0.794627
 O        -16.138673   -5.679168    2.457666
 O        -14.143874   -6.538840    2.083739
 C        -18.405231    1.401992   -1.062411
 C        -12.948855   -6.669012    1.298635
 H        -19.040780    2.260437   -1.245271
 H        -13.089733   -6.288161    0.284615
 H        -12.111070   -6.160517    1.784922
 H        -12.741480   -7.739485    1.262734
 H         17.105561    0.824518    0.838428
 H          8.041392   -7.280225   -0.827974
 H          8.124471    5.409978   -0.521785
 H         -2.392391   -4.627348    0.623699
 H         -6.459843    6.879106   -0.691295
 H        -12.543531   -4.085122    1.209348
 C          8.890330    2.787555    0.624628
 H          9.047864    3.797896    0.983380
 C          1.644876    4.732738    0.141827
 H          1.967170    5.760830    0.258593
 C        -10.512431   -2.474812   -0.237026
 H        -10.842939   -3.497192   -0.378399
 C        -17.786176   -0.691189   -0.784002
 H        -17.984474   -1.756275   -0.754602
 N          9.930434    1.912311    0.640661
 N          0.313095    4.459607    0.129978
 N         -9.179252   -2.208652   -0.220150
 N        -18.825351    0.170395   -1.022866
       130
T1: Total Energy = -9505.00048773
 C          3.982930    3.757113   -0.033186
 C          4.883279    4.850368    0.022611
 C          6.252594    4.516044    0.039419
 C          6.487259    3.092143   -0.007516
 S          4.921700    2.245250   -0.070930
 C          7.084821    5.662350    0.102345
 C          6.373191    6.847686    0.138489
 S          4.633876    6.566734    0.063591
 C          6.743895    8.276239    0.133542
 O          5.905755    9.124963   -0.123910
 O          8.001786    8.692110    0.401012
 C          9.017685    7.876625    0.999638
 H          8.606143    7.223571    1.773217
 H          9.543407    7.288414    0.240889
 H          9.720877    8.577301    1.452041
 C         10.359318   -0.450985   -0.032680
 C          9.994022   -1.782245   -0.086352
 C         11.099214   -2.682337   -0.090438
 C         12.348996   -1.989479   -0.019212
 S         12.116590   -0.240645    0.021132
 C         14.293143   -6.270926   -0.007092
 C         14.668365   -4.967035    0.052888
 C         13.553231   -4.056694    0.050024
 C         12.307976   -4.748314   -0.023260
 S         12.561497   -6.494184   -0.073846
 C         11.067683   -4.102739   -0.100860
 C         13.583319   -2.638193    0.058269
 H          8.961234   -2.108196   -0.105103
 H         15.701893   -4.646432    0.087318
 C          9.814920   -4.868520   -0.186378
 C          9.385956   -5.891177    0.625790
 C          8.137097   -6.453121    0.229459
 C          7.600294   -5.875845   -0.891108
 S          8.649440   -4.607728   -1.481122
 H          9.940106   -6.216776    1.499383
 C         14.839174   -1.871640    0.141369
 C         15.292698   -0.887196   -0.702352
 C         16.535735   -0.314710   -0.299573
 C         17.042320   -0.847458    0.856060
 S         15.970594   -2.084437    1.473028
 H         14.759388   -0.593779   -1.600156
 C          6.314380   -6.208285   -1.587594
 H          6.480794   -6.527342   -2.623478
 H          5.811292   -7.024872   -1.060763
 H          5.630603   -5.351358   -1.614597
 C         18.313756   -0.493469    1.568591
 H         18.125237   -0.129463    2.585721
 H         18.834974    0.296990    1.019953
 H         18.991163   -1.352206    1.648294
 H         14.937860   -7.140324   -0.017770
 C          9.524773    0.697911   -0.014568
 S          7.747828    0.606053   -0.073011
 C          7.677841    2.375627   -0.003908
 C          2.582550    3.746849   -0.059741
 S          1.627176    2.265395   -0.142662
 C          0.150226    3.248092   -0.117943
 C         -1.157385    2.682758   -0.154709
 C         -1.519458    1.352736   -0.205961
 S         -2.558150    3.761456   -0.124977
 C         -2.928036    1.142157   -0.225780
 H         -0.797669    0.545100   -0.211935
 C         -3.649562    2.377307   -0.171325
 C         -3.623242   -0.097886   -0.235105
 C         -5.042550    2.449994   -0.108829
 C         -5.017772   -0.023456   -0.171062
 C         -2.932456   -1.394907   -0.305656
 C         -5.736755    1.210377   -0.114785
 C         -5.734550    3.747711   -0.040485
 S         -6.112873   -1.404552   -0.214967
 C         -3.081596   -2.483895    0.519564
 S         -1.795759   -1.775336   -1.595919
 C         -7.149462    0.998656   -0.123937
 C         -5.598380    4.828679   -0.877628
 S         -6.852591    4.138525    1.262479
 C         -7.507788   -0.324432   -0.171395
 C         -2.290039   -3.605940    0.136147
 H         -3.724348   -2.473674    1.393125
 C         -1.534363   -3.393226   -0.986666
 H         -7.869788    1.807695   -0.109268
 C         -6.385745    5.953737   -0.493111
 H         -4.966375    4.811761   -1.758954
 C         -7.125144    5.750750    0.641999
 C         -8.827815   -0.901235   -0.185493
 C         -0.595182   -4.339858   -1.672929
 C         -8.055108    6.702810    1.333343
 S        -10.295321    0.077492   -0.086054
 H         -0.903405   -4.544868   -2.705132
 H         -0.572747   -5.291422   -1.133153
 H          0.427947   -3.946854   -1.708272
 H         -7.731523    6.917969    2.358738
 H         -8.086584    7.649218    0.785064
 H         -9.077289    6.309493    1.387755
 C        -11.250487   -1.392984   -0.180668
 C        -12.690344   -1.400826   -0.155982
 C        -13.551509   -2.397629    0.304542
 S        -13.628058   -0.063265   -0.779732
 C        -14.936015   -2.057418    0.153612
 C        -13.373942   -3.665626    0.949952
 C        -15.170848   -0.815075   -0.404451
 S        -15.983382   -3.301436    0.808559
 C        -14.559782   -4.271526    1.256791
 C        -16.428841   -0.163678   -0.684357
 C        -14.883369   -5.517233    1.995991
 S        -16.594809    1.572076   -0.878360
 O        -15.975682   -5.653594    2.515062
 O        -13.985332   -6.516120    2.122311
 C        -18.308088    1.345124   -1.132576
 C        -12.807778   -6.660586    1.313400
 H        -18.949458    2.196801   -1.326429
 H        -12.969145   -6.292157    0.297891
 H        -11.958279   -6.148531    1.775025
 H        -12.604319   -7.732105    1.286906
 H         17.043089    0.467762   -0.854948
 H          7.646545   -7.260325    0.764055
 H          8.162382    5.624114    0.099585
 H         -2.277148   -4.544368    0.681224
 H         -6.406493    6.887456   -1.045932
 H        -12.404478   -4.070589    1.202118
 C          9.018732    2.854381    0.053560
 H          9.280818    3.902835    0.103049
 C          1.686958    4.840558   -0.025852
 H          1.998785    5.876979    0.027030
 C        -10.386877   -2.470539   -0.270956
 H        -10.710444   -3.498748   -0.382684
 C        -17.675962   -0.739543   -0.821819
 H        -17.868194   -1.805029   -0.773108
 N          9.991316    1.947386    0.047559
 N          0.381267    4.557055   -0.057596
 N         -9.056534   -2.194646   -0.266323
 N        -18.721165    0.112093   -1.069435
       130
S1: Total Energy = -9504.97814773
 C          3.979791    3.775457   -0.062753
 C          4.876069    4.852987   -0.112464
 C          6.253705    4.497438   -0.095941
 C          6.468115    3.100440   -0.019057
 S          4.912669    2.273939    0.016840
 C          7.104378    5.639652   -0.197273
 C          6.409076    6.822256   -0.264082
 S          4.653585    6.574651   -0.248410
 C          6.807754    8.234372   -0.453040
 O          5.983788    9.058133   -0.811818
 O          8.074906    8.652539   -0.246469
 C          9.077621    7.900933    0.451786
 H          8.651473    7.339655    1.286737
 H          9.605575    7.228964   -0.231925
 H          9.781643    8.642426    0.832105
 C         10.356198   -0.455417    0.036581
 C         10.002964   -1.774659   -0.159924
 C         11.106053   -2.674438   -0.139833
 C         12.342034   -1.994214    0.102583
 S         12.097663   -0.254744    0.267079
 C         14.295224   -6.268511   -0.065371
 C         14.656818   -4.974390    0.138329
 C         13.542811   -4.064951    0.112276
 C         12.312265   -4.744393   -0.131505
 S         12.579332   -6.480675   -0.307609
 C         11.081253   -4.091511   -0.270726
 C         13.566436   -2.650820    0.239867
 H          8.977035   -2.093672   -0.297798
 H         15.681718   -4.661062    0.291334
 C          9.847021   -4.842526   -0.535472
 C          9.364979   -5.947583    0.127076
 C          8.157653   -6.465648   -0.424092
 C          7.705203   -5.773225   -1.516997
 S          8.783549   -4.447436   -1.884047
 H          9.850010   -6.362057    1.004024
 C         14.806098   -1.898213    0.497778
 C         15.321384   -0.840392   -0.211587
 C         16.523743   -0.310059    0.342593
 C         16.937143   -0.948264    1.481924
 S         15.826174   -2.235159    1.892385
 H         14.862359   -0.465125   -1.119867
 C          6.482894   -6.033590   -2.345646
 H          6.735496   -6.243496   -3.391906
 H          5.947165   -6.900955   -1.948232
 H          5.795467   -5.179202   -2.339870
 C         18.143679   -0.663080    2.325852
 H         17.869951   -0.390476    3.352172
 H         18.704979    0.171376    1.894507
 H         18.815701   -1.527678    2.384659
 H         14.943143   -7.135217   -0.091073
 C          9.517569    0.697527    0.072124
 S          7.763841    0.622017   -0.176777
 C          7.679882    2.370824    0.039662
 C          2.567097    3.766953   -0.073879
 S          1.608090    2.291537   -0.079777
 C          0.131373    3.281691   -0.088113
 C         -1.168956    2.723598   -0.090687
 C         -1.536097    1.381736   -0.071561
 S         -2.573257    3.793894   -0.116457
 C         -2.929773    1.168325   -0.088619
 H         -0.809626    0.579900   -0.024223
 C         -3.662842    2.403952   -0.095136
 C         -3.626663   -0.083541   -0.035962
 C         -5.049856    2.473695   -0.030513
 C         -5.015459   -0.011698    0.028605
 C         -2.928091   -1.373917   -0.045682
 C         -5.745844    1.223340    0.023519
 C         -5.750223    3.765561   -0.023564
 S         -6.108872   -1.398354    0.042755
 C         -3.113220   -2.447161    0.795884
 S         -1.731820   -1.782073   -1.274703
 C         -7.143640    1.011259    0.010861
 C         -5.589456    4.823760   -0.887066
 S         -6.912896    4.190908    1.230167
 C         -7.509881   -0.325426    0.024555
 C         -2.305762   -3.574874    0.473454
 H         -3.790994   -2.418100    1.641911
 C         -1.500355   -3.385658   -0.619696
 H         -7.867750    1.815764   -0.028685
 C         -6.390543    5.956282   -0.561223
 H         -4.932147    4.782569   -1.748742
 C         -7.165867    5.783792    0.555419
 C         -8.814413   -0.893033    0.022946
 C         -0.532458   -4.346651   -1.242445
 C         -8.118887    6.753010    1.188696
 S        -10.293525    0.086610    0.055001
 H         -0.794303   -4.573049   -2.282967
 H         -0.535131   -5.286547   -0.682290
 H          0.491403   -3.953948   -1.240118
 H         -7.829174    6.997240    2.217703
 H         -8.133538    7.683577    0.613349
 H         -9.141636    6.358809    1.220778
 C        -11.246453   -1.393293    0.016625
 C        -12.670824   -1.406050    0.002095
 C        -13.562905   -2.462559    0.264184
 S        -13.586282    0.034151   -0.411630
 C        -14.935542   -2.081893    0.124420
 C        -13.423049   -3.819942    0.686612
 C        -15.147430   -0.758406   -0.226533
 S        -16.017248   -3.402009    0.513953
 C        -14.626596   -4.459839    0.840893
 C        -16.385737   -0.056561   -0.434493
 C        -15.000111   -5.806272    1.326996
 S        -16.500733    1.694734   -0.503971
 O        -16.135730   -6.025109    1.711605
 O        -14.108722   -6.821089    1.370249
 C        -18.224051    1.539390   -0.746252
 C        -12.856700   -6.835142    0.670270
 H        -18.841069    2.421933   -0.866651
 H        -12.927945   -6.324457   -0.292916
 H        -12.065794   -6.389538    1.281514
 H        -12.626780   -7.889437    0.508831
 H         17.070595    0.519309   -0.094582
 H          7.634101   -7.325625   -0.018741
 H          8.179780    5.577761   -0.260948
 H         -2.316315   -4.500802    1.039378
 H         -6.396033    6.873183   -1.141723
 H        -12.471270   -4.280094    0.905453
 C          8.981574    2.837312    0.277323
 H          9.223055    3.871585    0.487523
 C          1.683363    4.863421   -0.082463
 H          2.005576    5.898341   -0.075459
 C        -10.362840   -2.476212   -0.009626
 H        -10.679516   -3.509809   -0.075320
 C        -17.656258   -0.581687   -0.596253
 H        -17.884747   -1.640537   -0.621252
 N          9.968074    1.927315    0.289623
 N          0.374332    4.592797   -0.091536
 N         -9.047284   -2.200026   -0.001570
 N        -18.674454    0.317236   -0.766453
