       134
S0: Total Energy = -10160.9036365
 C         -4.304801    3.929876    0.350686
 C         -5.242305    4.925327    0.140904
 C         -6.607962    4.489934    0.154218
 C         -6.742642    3.122068    0.395350
 S         -5.156921    2.412608    0.614410
 C         -7.519001    5.555462   -0.155663
 C         -6.867580    6.729026   -0.372036
 S         -5.105739    6.645964   -0.203908
 C        -10.362107   -0.775945    0.377092
 C         -9.849167   -2.005902    0.060473
 C        -10.820082   -3.060715    0.042421
 C        -12.127222   -2.582046    0.352823
 S        -12.108315   -0.848454    0.672890
 C        -13.516363   -7.023258   -0.308930
 C        -14.048188   -5.814752    0.003489
 C        -13.071850   -4.754080    0.022797
 C        -11.765700   -5.234452   -0.286365
 S        -11.793109   -6.970167   -0.601995
 C        -10.621364   -4.425284   -0.281693
 C        -13.269192   -3.389631    0.348220
 H         -8.801525   -2.166189   -0.164253
 H        -15.097180   -5.665770    0.226455
 C         -9.296114   -4.982059   -0.601221
 C         -8.922618   -5.709469   -1.705273
 C         -7.563014   -6.139490   -1.675985
 C         -6.884246   -5.754337   -0.550311
 S         -7.935199   -4.840247    0.507165
 H         -9.599226   -5.913227   -2.528131
 C        -14.594466   -2.831318    0.669842
 C        -14.971474   -2.122198    1.784272
 C        -16.329645   -1.686629    1.754582
 C        -17.003180   -2.050145    0.618731
 S        -15.948857   -2.949827   -0.448219
 H        -14.298897   -1.935534    2.614582
 C         -5.455258   -6.024639   -0.183652
 H         -5.372735   -6.594884    0.749430
 H         -4.975965   -6.606555   -0.976919
 H         -4.884191   -5.097588   -0.052482
 C        -18.429287   -1.769001    0.248836
 H        -18.504834   -1.180877   -0.673687
 H        -18.911908   -1.201022    1.050122
 H        -19.002295   -2.691620    0.096843
 H        -14.035612   -7.969664   -0.388342
 C         -9.669182    0.486093    0.484160
 C        -10.170686    1.716570    0.867882
 S         -7.960178    0.620899    0.102082
 C         -9.207754    2.749941    0.879119
 H        -11.205614    1.867126    1.155511
 C         -7.944466    2.335601    0.493224
 H         -9.422864    3.760264    1.206346
 C         -2.868191    4.019188    0.386153
 C         -2.090308    5.145372    0.592585
 S         -1.846931    2.611221    0.133603
 C         -0.701245    4.888045    0.554027
 H         -2.505477    6.124579    0.801980
 C         -0.381487    3.563117    0.323747
 H          0.048296    5.658482    0.699535
 C          0.922098    2.951196    0.231822
 C          1.235230    1.652496   -0.074949
 S          2.373653    3.921133    0.537454
 C          2.639732    1.373089   -0.081478
 H          0.485511    0.906956   -0.311151
 C          3.412701    2.531555    0.226599
 C          3.285441    0.151143   -0.399611
 C          4.810964    2.552550    0.228517
 C          4.683830    0.171975   -0.397740
 C          2.543721   -1.080449   -0.719200
 C          5.456710    1.329727   -0.087176
 C          5.552575    3.784629    0.546309
 S          5.722307   -1.218473   -0.706222
 C          2.664637   -1.883101   -1.827621
 S          1.368719   -1.773153    0.393910
 C          6.861228    1.050998   -0.097720
 C          5.429764    4.590019    1.652571
 S          6.730201    4.474276   -0.566009
 C          7.174026   -0.246656   -0.409187
 C          1.821231   -3.033025   -1.797405
 H          3.325033   -1.644092   -2.654244
 C          1.053108   -3.126956   -0.667195
 H          7.612284    1.799665    0.123892
 C          6.273868    5.739402    1.621420
 H          4.767759    4.353252    2.478561
 C          7.044468    5.830381    0.492640
 C          8.478707   -0.855445   -0.509575
 C          0.061002   -4.189633   -0.298497
 C          8.038182    6.891409    0.123520
 C          8.809202   -2.127714   -0.939457
 S          9.928482    0.025599   -0.054173
 H          0.336906   -4.702512    0.630699
 H          0.011976   -4.938919   -1.094578
 H         -0.945973   -3.778212   -0.159081
 H          7.764519    7.402425   -0.807357
 H          8.086418    7.642451    0.917959
 H          9.045103    6.479014   -0.012983
 C         10.196896   -2.393059   -0.931301
 H          8.070041   -2.845978   -1.277481
 C         10.962334   -1.330575   -0.482875
 H         10.627594   -3.320594   -1.289682
 C         12.394854   -1.258319   -0.350510
 C         13.308062   -2.289152   -0.130468
 S         13.256777    0.259919   -0.489602
 C         14.665685   -1.829725   -0.067726
 C         13.202812   -3.699170    0.119817
 C         14.834218   -0.467627   -0.216280
 S         15.792126   -3.147288    0.244872
 C         14.419746   -4.265044    0.338505
 C         16.049537    0.313721   -0.191802
 C         17.334664   -0.109252   -0.469897
 S         16.053403    2.013112    0.257722
 C         18.309902    0.918066   -0.330985
 H         17.568559   -1.114763   -0.801710
 C         17.771828    2.118666    0.045064
 H         19.368078    0.770075   -0.515922
 H         18.276498    3.060520    0.212838
 H         -7.098959   -6.714433   -2.471103
 H        -16.796403   -1.123812    2.556769
 H         -8.594684    5.460132   -0.229094
 H          1.780555   -3.767744   -2.595294
 H          6.313385    6.475876    2.417739
 H         12.280233   -4.264500    0.149877
 S         14.673947   -5.994511    0.680178
 S         -7.671162    8.262328   -0.791375
 O         -9.094222    8.115528   -0.444494
 O         -6.867737    9.354698   -0.216848
 O         13.435196   -6.696734    0.306276
 O         15.963582   -6.380435    0.082749
 C         14.844825   -6.076670    2.474286
 H         13.917598   -5.731968    2.934732
 H         15.028949   -7.125867    2.719267
 H         15.691525   -5.460285    2.781942
 C         -7.539188    8.358103   -2.588081
 H         -8.079013    7.518097   -3.028085
 H         -7.997061    9.306075   -2.882013
 H         -6.484984    8.341185   -2.870526
       134
T1: Total Energy = -10160.8627983
 C          4.348881    3.991183   -0.269815
 C          5.321842    5.022846   -0.308968
 C          6.667951    4.608102   -0.285840
 C          6.815563    3.173386   -0.231104
 S          5.196463    2.425078   -0.199669
 C          7.570345    5.705990   -0.317128
 C          6.916130    6.913010   -0.363941
 S          5.169292    6.757070   -0.390290
 C         10.271914   -0.802614   -0.070366
 C          9.685930   -2.051706    0.029305
 C         10.612417   -3.134796    0.061796
 C         11.967007   -2.681259   -0.000266
 S         12.044826   -0.922930   -0.125832
 C         13.126533   -7.223939    0.341857
 C         13.728108   -6.009823    0.251241
 C         12.792684   -4.916038    0.214404
 C         11.443598   -5.372219    0.274575
 S         11.381720   -7.132449    0.386986
 C         10.333170   -4.520848    0.196352
 C         13.071179   -3.530916    0.078628
 H          8.613525   -2.187994    0.096691
 H         14.801875   -5.880235    0.200352
 C          8.962725   -5.052331    0.253760
 C          8.418375   -5.901970    1.187067
 C          7.066466   -6.263814    0.914495
 C          6.563169   -5.704183   -0.230194
 S          7.774556   -4.705514   -0.999646
 H          8.965860   -6.240745    2.059871
 C         14.444514   -2.999724    0.018375
 C         15.005703   -2.198615   -0.945910
 C         16.354500   -1.825754   -0.668032
 C         16.837006   -2.330011    0.510441
 S         15.608894   -3.287755    1.306804
 H         14.472555   -1.900607   -1.842341
 C          5.193456   -5.860199   -0.820882
 H          5.228492   -6.295251   -1.826920
 H          4.593746   -6.522281   -0.188694
 H          4.669517   -4.899770   -0.897510
 C         18.196813   -2.147749    1.116594
 H         18.145628   -1.663214    2.099067
 H         18.809515   -1.519002    0.463222
 H         18.717227   -3.103856    1.249728
 H         13.605405   -8.193624    0.385688
 C          9.635220    0.465475   -0.127919
 C         10.225679    1.738798   -0.206169
 S          7.873896    0.616970   -0.110120
 C          9.327698    2.790996   -0.248338
 H         11.301576    1.876287   -0.231956
 C          7.962540    2.391169   -0.204730
 H          9.636778    3.824620   -0.317549
 C          2.952631    4.074088   -0.272933
 C          2.134297    5.224631   -0.340968
 S          1.936465    2.626269   -0.182698
 C          0.772233    4.948991   -0.316510
 H          2.529533    6.230576   -0.407811
 C          0.457997    3.586635   -0.228611
 H          0.009862    5.719583   -0.357110
 C         -0.828310    2.977100   -0.173665
 C         -1.135963    1.637942   -0.030368
 S         -2.295759    3.970956   -0.286674
 C         -2.531962    1.356787   -0.003835
 H         -0.376669    0.872795    0.076695
 C         -3.318925    2.544809   -0.119891
 C         -3.167032    0.097130    0.175415
 C         -4.712902    2.559135   -0.055850
 C         -4.562787    0.113501    0.240939
 C         -2.413599   -1.161550    0.291657
 C         -5.346925    1.300374    0.123784
 C         -5.467507    3.818538   -0.172693
 S         -5.591124   -1.308737    0.408751
 C         -2.500763   -2.117167    1.275530
 S         -1.269669   -1.679249   -0.943008
 C         -6.747298    1.019877    0.162005
 C         -5.400858    4.760014   -1.170942
 S         -6.582961    4.354183    1.079736
 C         -7.051335   -0.310379    0.312769
 C         -1.656928   -3.245281    1.055205
 H         -3.135641   -2.003701    2.147603
 C         -0.921978   -3.170297   -0.098496
 H         -7.505038    1.789349    0.075594
 C         -6.238625    5.892620   -0.947436
 H         -4.783812    4.634269   -2.054150
 C         -6.948276    5.834357    0.222717
 C         -8.351488   -0.926746    0.395470
 C          0.060996   -4.162413   -0.645106
 C         -7.917960    6.835054    0.777564
 C         -8.668540   -2.251432    0.640801
 S         -9.818052    0.015661    0.175794
 H         -0.237985   -4.533127   -1.632878
 H          0.130664   -5.021036    0.029720
 H          1.063721   -3.730176   -0.747045
 H         -7.594876    7.221430    1.751674
 H         -8.004626    7.682984    0.091295
 H         -8.917837    6.404962    0.911015
 C        -10.055793   -2.511280    0.677913
 H         -7.917467   -3.014491    0.814548
 C        -10.837188   -1.390620    0.450450
 H        -10.472664   -3.483490    0.912657
 C        -12.273538   -1.296179    0.423741
 C        -13.213311   -2.280762    0.117304
 S        -13.104394    0.189738    0.836117
 C        -14.565494   -1.810807    0.209457
 C        -13.144466   -3.640482   -0.338678
 C        -14.705533   -0.483683    0.563909
 S        -15.728022   -3.063393   -0.216260
 C        -14.380947   -4.162854   -0.556897
 C        -15.908784    0.298188    0.731893
 C        -17.180177   -0.155537    1.024770
 S        -15.916602    2.045533    0.540121
 C        -18.147661    0.885432    1.100935
 H        -17.407231   -1.198103    1.218019
 C        -17.617039    2.126094    0.873429
 H        -19.194452    0.716618    1.327981
 H        -18.118000    3.084698    0.878620
 H          6.480331   -6.916766    1.553366
 H         16.952893   -1.205180   -1.327540
 H          8.650021    5.646613   -0.312700
 H         -1.591434   -4.086987    1.737323
 H         -6.317819    6.725331   -1.639103
 H        -12.234163   -4.200983   -0.508534
 S        -14.681770   -5.823375   -1.126797
 S          7.697873    8.502440   -0.387697
 O          9.074805    8.302641   -0.870177
 O          6.786434    9.433997   -1.075064
 O        -13.438029   -6.583795   -0.921256
 O        -15.946509   -6.277240   -0.524053
 C        -14.942626   -5.646770   -2.903104
 H        -14.034498   -5.245583   -3.355966
 H        -15.152692   -6.648801   -3.285864
 H        -15.795156   -4.987403   -3.076224
 C          7.789252    9.000541    1.345203
 H          8.393244    8.274285    1.891655
 H          8.265369    9.984398    1.360992
 H          6.779013    9.060531    1.754081
       134
S1: Total Energy = -10160.8400367
 C          4.367099    4.039181   -0.224705
 C          5.335654    5.053018   -0.238881
 C          6.689477    4.614685   -0.237475
 C          6.816342    3.202428   -0.234726
 S          5.205710    2.476850   -0.222003
 C          7.607503    5.709575   -0.213713
 C          6.969124    6.918413   -0.211528
 S          5.210268    6.797729   -0.251342
 C         10.237049   -0.832106   -0.125363
 C          9.641208   -2.061351    0.079146
 C         10.547519   -3.159719    0.093819
 C         11.902046   -2.737379   -0.090657
 S         11.996813   -0.988922   -0.306738
 C         13.009864   -7.282051    0.383086
 C         13.621791   -6.084379    0.190831
 C         12.704560   -4.975943    0.172466
 C         11.356251   -5.401850    0.354009
 S         11.275520   -7.154425    0.552887
 C         10.256331   -4.534162    0.315698
 C         12.994682   -3.603590   -0.051401
 H          8.574941   -2.172472    0.233956
 H         14.690580   -5.978458    0.053602
 C          8.886742   -5.034873    0.497508
 C          8.403089   -5.848779    1.495024
 C          7.028183   -6.191369    1.341220
 C          6.444642   -5.653232    0.224294
 S          7.606932   -4.699101   -0.667029
 H          9.011817   -6.173047    2.331973
 C         14.367972   -3.103913   -0.239092
 C         14.866910   -2.354408   -1.276548
 C         16.239568   -1.998996   -1.119227
 C         16.803129   -2.465008    0.038890
 S         15.623866   -3.363452    0.967092
 H         14.271272   -2.082335   -2.141302
 C          5.029855   -5.798905   -0.251108
 H          4.977326   -6.259845   -1.244796
 H          4.471972   -6.433689    0.444110
 H          4.517234   -4.831140   -0.311485
 C         18.208799   -2.287043    0.530781
 H         18.242580   -1.760357    1.492082
 H         18.780759   -1.700097   -0.194389
 H         18.720041   -3.247856    0.665684
 H         13.475472   -8.257658    0.437003
 C          9.618336    0.450633   -0.198821
 C         10.213699    1.698152   -0.396113
 S          7.873417    0.638861   -0.039548
 C          9.316809    2.767620   -0.426575
 H         11.284112    1.819185   -0.524964
 C          7.975120    2.393358   -0.249133
 H          9.627768    3.788054   -0.606686
 C          2.958176    4.127489   -0.213457
 C          2.151731    5.280111   -0.254197
 S          1.940796    2.686332   -0.143499
 C          0.785783    5.014760   -0.227361
 H          2.554693    6.284006   -0.307303
 C          0.461388    3.652220   -0.165576
 H          0.029135    5.791788   -0.250477
 C         -0.817604    3.048036   -0.125170
 C         -1.127028    1.694156   -0.018727
 S         -2.289452    4.034685   -0.212672
 C         -2.507921    1.408000   -0.010355
 H         -0.362231    0.933090    0.075753
 C         -3.308149    2.597416   -0.092980
 C         -3.141131    0.130170    0.129409
 C         -4.695710    2.602242   -0.029350
 C         -4.531138    0.137002    0.192844
 C         -2.378214   -1.122188    0.208244
 C         -5.328084    1.325283    0.107531
 C         -5.461140    3.855451   -0.106489
 S         -5.554062   -1.297387    0.308097
 C         -2.494202   -2.131070    1.136300
 S         -1.181581   -1.566956   -1.007040
 C         -6.712704    1.040453    0.114840
 C         -5.372503    4.848668   -1.052769
 S         -6.622795    4.316559    1.134944
 C         -7.021330   -0.307760    0.222259
 C         -1.633981   -3.239671    0.889263
 H         -3.159436   -2.067282    1.990504
 C         -0.855869   -3.098506   -0.230062
 H         -7.474890    1.805465    0.029526
 C         -6.227791    5.960547   -0.798646
 H         -4.728961    4.773037   -1.922584
 C         -6.973709    5.835896    0.343822
 C         -8.307502   -0.916309    0.263323
 C          0.155365   -4.053942   -0.789660
 C         -7.969719    6.798823    0.918128
 C         -8.630064   -2.266580    0.405586
 S         -9.781905    0.040328    0.124963
 H         -0.103481   -4.374902   -1.805765
 H          0.207754   -4.945837   -0.157873
 H          1.157057   -3.609432   -0.831908
 H         -7.678743    7.139742    1.918947
 H         -8.045961    7.678538    0.271877
 H         -8.968024    6.352814    1.001311
 C        -10.004310   -2.528932    0.420581
 H         -7.876815   -3.039239    0.516004
 C        -10.801108   -1.389614    0.281586
 H        -10.414109   -3.519024    0.575039
 C        -12.223249   -1.298872    0.266696
 C        -13.183395   -2.306311    0.066231
 S        -13.043760    0.232544    0.540862
 C        -14.526344   -1.815020    0.131895
 C        -13.137489   -3.700558   -0.254043
 C        -14.654677   -0.455323    0.361096
 S        -15.708115   -3.085647   -0.154477
 C        -14.384652   -4.232163   -0.402506
 C        -15.844967    0.346586    0.468004
 C        -17.136635   -0.075185    0.734369
 S        -15.815377    2.090639    0.232763
 C        -18.083867    0.983944    0.753898
 H        -17.392180   -1.106572    0.949262
 C        -17.523227    2.209429    0.510105
 H        -19.140092    0.840592    0.953000
 H        -18.006678    3.176297    0.473841
 H          6.483576   -6.814758    2.043334
 H         16.795841   -1.418503   -1.848475
 H          8.686247    5.633710   -0.194158
 H         -1.586746   -4.115579    1.528369
 H         -6.293828    6.826782   -1.449181
 H        -12.240345   -4.291198   -0.384177
 S        -14.711110   -5.932948   -0.804353
 S          7.775732    8.496937   -0.170675
 O          9.165038    8.288064   -0.612397
 O          6.902682    9.459859   -0.864725
 O        -13.475524   -6.687141   -0.534268
 O        -15.977332   -6.308721   -0.152275
 C        -14.985328   -5.933573   -2.587929
 H        -14.075702   -5.595530   -3.087018
 H        -15.215194   -6.965534   -2.865543
 H        -15.828692   -5.280734   -2.820018
 C          7.815036    8.949891    1.576193
 H          8.396299    8.204871    2.121873
 H          8.297045    9.929360    1.632448
 H          6.792745    9.007241    1.954456
