       125
S0: Total Energy = -7819.34612354
 C        -19.373576   -0.908643    0.010305
 C        -20.033840    0.294055   -0.200233
 S        -20.618407   -2.172405    0.202749
 C        -19.695497    1.716396   -0.435455
 C        -21.454707    0.192864   -0.204997
 C        -21.936069   -1.060727   -0.003024
 N        -20.929513    2.383803   -0.566368
 O        -18.618640    2.284187   -0.515519
 C        -22.039542    1.534871   -0.440247
 C        -21.026336    3.812617   -0.809099
 O        -23.204862    1.879306   -0.516160
 H        -22.085941    4.067708   -0.847530
 H        -20.538973    4.369232   -0.003759
 H        -20.547899    4.072690   -1.757695
 H        -22.958959   -1.409892    0.038386
 C        -17.968550   -1.231239    0.086887
 C        -17.346430   -2.469018    0.285999
 S        -16.760433    0.047179   -0.082194
 C        -15.935779   -2.365310    0.300718
 C        -15.447131   -1.085813    0.119948
 H        -15.294776   -3.228728    0.447209
 C        -14.075796   -0.642001    0.082755
 C        -13.582007    0.644448   -0.041144
 S        -12.750427   -1.790996    0.198898
 C        -12.172319    0.716625   -0.043384
 H        -14.221821    1.516312   -0.125923
 C        -11.549309   -0.512816    0.078978
 H        -11.624986    1.648802   -0.133168
 C        -10.139972   -0.814042    0.111621
 C         -9.522930   -2.046515    0.205362
 S         -8.949950    0.460723    0.028559
 C         -8.110007   -2.004021    0.209748
 H        -10.071822   -2.980667    0.268602
 C         -7.614672   -0.695996    0.116540
 C        -18.023946   -3.801315    0.472801
 H        -18.665575   -3.817614    1.361833
 H        -18.648472   -4.071642   -0.386845
 H        -17.273437   -4.587313    0.594631
 C         -7.307866   -3.276073    0.307156
 H         -7.981608   -4.134299    0.381953
 H         -6.671702   -3.432946   -0.571772
 H         -6.658224   -3.289414    1.189955
 C         -6.248029   -0.233927    0.085364
 S         -4.902754   -1.390200    0.142941
 C         -5.695226    1.034405    0.009271
 C         -3.637125   -0.148647    0.063315
 C         -4.272232    1.080871   -0.000983
 C         -6.201172    2.422712   -0.070012
 C         -2.242697   -0.518534    0.076401
 C         -3.862270    2.500222   -0.084335
 N         -5.055849    3.231882   -0.122187
 O         -7.343513    2.853943   -0.091230
 C         -1.659449   -1.792414    0.116764
 S         -0.989748    0.729412    0.039699
 O         -2.755384    3.015562   -0.117404
 C         -5.092187    4.681392   -0.206695
 C         -0.246928   -1.738014    0.122117
 C         -2.373958   -3.118753    0.153388
 C          0.284599   -0.463138    0.088237
 H         -6.139659    4.983821   -0.221567
 H         -4.589617    5.125959    0.657020
 H         -4.594441    5.022113   -1.119028
 H          0.364632   -2.633951    0.156321
 H         -2.998615   -3.228116    1.047672
 H         -3.020837   -3.264582   -0.719444
 H         -1.644147   -3.933303    0.161615
 C          1.669943   -0.065001    0.086649
 C          2.208155    1.208878    0.134476
 S          2.955126   -1.262882    0.018074
 C          3.619329    1.233157    0.116589
 H          1.598785    2.104913    0.184053
 C          4.199619   -0.021525    0.054836
 H          4.198610    2.149800    0.144984
 C          5.597490   -0.371762    0.020566
 C          6.171101   -1.619977   -0.125543
 S          6.831540    0.853502    0.175909
 C          7.584718   -1.627676   -0.122967
 H          5.589779   -2.529171   -0.240715
 C          8.125627   -0.343752    0.031451
 C          8.341525   -2.921700   -0.278129
 H          7.637873   -3.754207   -0.367907
 H          8.973360   -2.927158   -1.173987
 H          8.988840   -3.128674    0.581930
 C          9.507615    0.068914    0.079643
 S         10.812027   -1.123013   -0.089983
 C         10.104298    1.308584    0.242736
 C         12.120594    0.066559    0.062521
 C         11.528475    1.307516    0.233624
 C          9.646639    2.702254    0.436217
 C         13.500657   -0.347283   -0.004758
 C         11.987143    2.701254    0.421823
 N         10.819196    3.466664    0.534110
 O          8.519796    3.168219    0.506390
 C         14.039112   -1.630259   -0.171422
 S         14.797933    0.849580    0.124270
 O         13.110806    3.176867    0.480122
 C         10.833151    4.905538    0.730330
 C         15.452928   -1.624014   -0.186486
 C         13.279327   -2.923219   -0.320237
 C         16.029234   -0.377448   -0.037800
 H          9.796857    5.240798    0.780863
 H         11.350598    5.158229    1.660190
 H         11.342625    5.398575   -0.102492
 H         16.032903   -2.534659   -0.296734
 H         12.644046   -3.132928    0.548172
 H         12.634723   -2.924792   -1.207036
 H         13.980862   -3.755975   -0.423187
 C         17.428578   -0.030016   -0.008983
 C         18.016822    1.191566    0.258571
 S         18.666094   -1.234416   -0.347122
 C         19.429950    1.168290    0.210079
 H         17.444654    2.081167    0.499846
 C         19.957835   -0.070792   -0.096859
 H         20.047076    2.036814    0.413714
 C         21.343544   -0.464982   -0.226063
 C         21.884083   -1.730801   -0.290418
 S         22.619044    0.740868   -0.331081
 C         23.308227   -1.757989   -0.416459
 H         21.279766   -2.631150   -0.232768
 C         23.835440   -0.493253   -0.445477
 C         24.118434   -3.024219   -0.498796
 H         24.876866   -0.210799   -0.528992
 H         23.969246   -3.650135    0.389515
 H         23.829117   -3.625127   -1.369663
 H         25.187311   -2.806600   -0.580897
       125
T1: Total Energy = -7819.30174740
 C         19.352835   -0.907611    0.004651
 C         20.016541    0.305617    0.125735
 S         20.594282   -2.185747   -0.091507
 C         19.682469    1.742588    0.249906
 C         21.437073    0.201076    0.138751
 C         21.914866   -1.065557    0.031267
 N         20.918046    2.414787    0.330229
 O         18.606998    2.317909    0.284376
 C         22.025451    1.555524    0.270552
 C         21.018523    3.857850    0.462852
 O         23.191908    1.901596    0.320686
 H         22.078685    4.111641    0.491868
 H         20.541563    4.352730   -0.387782
 H         20.532229    4.191553    1.383957
 H         22.936653   -1.420005    0.014824
 C         17.947000   -1.231430   -0.045037
 C         17.322413   -2.477184   -0.178151
 S         16.740800    0.054798    0.073748
 C         15.912080   -2.373491   -0.183376
 C         15.425008   -1.086255   -0.059026
 H         15.269733   -3.242442   -0.283909
 C         14.054688   -0.641396   -0.033619
 C         13.561012    0.650923    0.024191
 S         12.729085   -1.795123   -0.078944
 C         12.152646    0.723641    0.031328
 H         14.201366    1.525851    0.057230
 C         11.527849   -0.511598   -0.020683
 H         11.605796    1.659373    0.074604
 C         10.120959   -0.812699   -0.030907
 C          9.503892   -2.051282   -0.035083
 S          8.929561    0.464391   -0.044644
 C          8.094259   -2.012347   -0.044624
 H         10.054963   -2.986270   -0.028239
 C          7.593135   -0.698031   -0.049252
 C         17.997735   -3.817092   -0.310099
 H         18.645775   -3.867885   -1.193011
 H         18.615002   -4.056554    0.563887
 H         17.246072   -4.605303   -0.407742
 C          7.295396   -3.289947   -0.049005
 H          7.971753   -4.149220   -0.060152
 H          6.659061   -3.383203    0.838671
 H          6.646562   -3.369253   -0.928741
 C          6.230022   -0.244344   -0.055632
 S          4.888145   -1.410078   -0.024576
 C          5.669898    1.028779   -0.081531
 C          3.609555   -0.164912   -0.049777
 C          4.255173    1.079130   -0.079710
 C          6.182437    2.420092   -0.117354
 C          2.236581   -0.520653   -0.037599
 C          3.847662    2.497895   -0.116026
 N          5.043802    3.232103   -0.136973
 O          7.328628    2.843016   -0.128832
 C          1.636867   -1.818990   -0.008284
 S          0.977261    0.733257   -0.057519
 O          2.742772    3.020906   -0.128483
 C          5.081133    4.683377   -0.174140
 C          0.251129   -1.771168   -0.002339
 C          2.365185   -3.137362    0.013716
 C         -0.309170   -0.476783   -0.026427
 H          6.128712    4.985371   -0.192325
 H          4.572722    5.054554   -1.068494
 H          4.590675    5.100572    0.710015
 H         -0.361149   -2.666875    0.018114
 H          2.998454   -3.273895   -0.870318
 H          3.005314   -3.241002    0.897262
 H          1.642514   -3.958017    0.031957
 C         -1.657971   -0.115636   -0.029282
 C         -2.222717    1.189573   -0.059881
 S         -2.954878   -1.330712    0.005523
 C         -3.598016    1.213884   -0.057158
 H         -1.606237    2.081641   -0.084138
 C         -4.208640   -0.070369   -0.023438
 H         -4.182596    2.127249   -0.078730
 C         -5.568894   -0.383568   -0.013173
 C         -6.174312   -1.657738    0.021789
 S         -6.812204    0.870601   -0.048314
 C         -7.560449   -1.657041    0.022564
 H         -5.593477   -2.574023    0.045750
 C         -8.115208   -0.338268   -0.013934
 C         -8.333849   -2.949190    0.056816
 H         -7.639950   -3.794329    0.074272
 H         -8.970577   -3.026088    0.945549
 H         -8.978075   -3.067976   -0.821816
 C         -9.474769    0.064171   -0.024315
 S        -10.794494   -1.136957    0.028785
 C        -10.079310    1.328898   -0.071594
 C        -12.096777    0.072298   -0.016524
 C        -11.495129    1.325613   -0.067274
 C         -9.621789    2.731162   -0.133089
 C        -13.473741   -0.334354    0.004084
 C        -11.958103    2.733148   -0.126232
 N        -10.795710    3.505317   -0.163321
 O         -8.496052    3.207055   -0.156590
 C        -14.020697   -1.629391    0.042547
 S        -14.769550    0.874203   -0.015316
 O        -13.085304    3.205107   -0.142943
 C        -10.807654    4.956040   -0.225186
 C        -15.430980   -1.618806    0.053240
 C        -13.266883   -2.933833    0.066966
 C        -16.004733   -0.359821    0.024582
 H         -9.770701    5.291841   -0.254414
 H        -11.332571    5.294843   -1.122907
 H        -11.307045    5.372009    0.654633
 H        -16.014563   -2.533469    0.076241
 H        -12.628171   -3.059099   -0.814934
 H        -12.626848   -3.025324    0.952152
 H        -13.972606   -3.769166    0.083893
 C        -17.400719   -0.010033    0.023298
 C        -17.985209    1.240651   -0.068088
 S        -18.645157   -1.249032    0.150087
 C        -19.397296    1.214202   -0.047036
 H        -17.409123    2.155501   -0.157785
 C        -19.931742   -0.056356    0.061970
 H        -20.009809    2.106326   -0.121504
 C        -21.319077   -0.459224    0.108821
 C        -21.857079   -1.727892    0.072098
 S        -22.603740    0.735922    0.232379
 C        -23.284565   -1.765275    0.137485
 H        -21.247898   -2.623059   -0.010304
 C        -23.817752   -0.505359    0.223265
 C        -24.092358   -3.035365    0.110026
 H        -24.862777   -0.230161    0.282482
 H        -23.913291   -3.600368   -0.812905
 H        -23.827858   -3.692373    0.947520
 H        -25.163949   -2.825137    0.173127
       125
S1: Total Energy = -7819.28429823
 C         19.347649   -0.892069   -0.044419
 C         20.008545    0.330533    0.024155
 S         20.597089   -2.166111   -0.139687
 C         19.670876    1.766435    0.120527
 C         21.429211    0.232585    0.001089
 C         21.912526   -1.033707   -0.084245
 N         20.906240    2.447242    0.149489
 O         18.594744    2.341113    0.170355
 C         22.014914    1.592406    0.081393
 C         21.002065    3.893463    0.241054
 O         23.181514    1.943601    0.090158
 H         22.061324    4.152842    0.241212
 H         20.505312    4.363725   -0.612375
 H         20.533067    4.249905    1.162652
 H         22.936116   -1.381745   -0.117399
 C         17.947622   -1.223325   -0.050070
 C         17.323816   -2.480427   -0.109615
 S         16.735674    0.062855    0.024356
 C         15.918104   -2.384999   -0.094998
 C         15.420669   -1.091591   -0.026909
 H         15.278985   -3.261188   -0.135257
 C         14.056768   -0.658732    0.002466
 C         13.555121    0.638728    0.058918
 S         12.731030   -1.817656   -0.034165
 C         12.155391    0.709983    0.072132
 H         14.195670    1.513666    0.089092
 C         11.524157   -0.532463    0.026816
 H         11.606578    1.644571    0.114497
 C         10.129598   -0.825552    0.024991
 C          9.504568   -2.069841   -0.004918
 S          8.933731    0.454364    0.064164
 C          8.104811   -2.033525    0.002357
 H         10.057957   -3.003212   -0.030249
 C          7.594005   -0.711078    0.038731
 C         18.006364   -3.821175   -0.182627
 H         18.627883   -3.919797   -1.080466
 H         18.651875   -4.003787    0.684548
 H         17.258820   -4.618855   -0.210784
 C          7.303622   -3.308841   -0.025765
 H          7.978801   -4.168980   -0.044507
 H          6.660392   -3.413180    0.855577
 H          6.660990   -3.374615   -0.911313
 C          6.241638   -0.267159    0.051298
 S          4.891198   -1.433275    0.012121
 C          5.673539    1.012376    0.088811
 C          3.614860   -0.182994    0.046780
 C          4.266271    1.060381    0.085412
 C          6.184846    2.403720    0.139299
 C          2.241613   -0.534323    0.028565
 C          3.854314    2.480737    0.133530
 N          5.045793    3.217469    0.164094
 O          7.329888    2.828288    0.158535
 C          1.639615   -1.825474    0.010988
 S          0.983335    0.720994    0.019485
 O          2.746615    2.996637    0.147300
 C          5.082536    4.668190    0.215218
 C          0.247577   -1.769586   -0.010619
 C          2.358248   -3.149338    0.016871
 C         -0.300014   -0.480183   -0.012742
 H          6.130087    4.969939    0.239621
 H          4.595291    5.094243   -0.666542
 H          4.571699    5.031143    1.111609
 H         -0.367350   -2.663779   -0.025931
 H          2.995155   -3.278378   -0.865842
 H          2.993518   -3.270987    0.901601
 H          1.629646   -3.965037    0.019139
 C         -1.660764   -0.103847   -0.034333
 C         -2.213438    1.188444   -0.050880
 S         -2.954329   -1.309711   -0.046179
 C         -3.603329    1.212957   -0.072725
 H         -1.599583    2.082620   -0.047762
 C         -4.202188   -0.057649   -0.073067
 H         -4.184454    2.128734   -0.087061
 C         -5.577313   -0.385131   -0.088306
 C         -6.170490   -1.652608   -0.073701
 S         -6.815227    0.860626   -0.132787
 C         -7.565799   -1.656158   -0.090606
 H         -5.589286   -2.568738   -0.049310
 C         -8.117388   -0.346617   -0.121742
 C         -8.332641   -2.952598   -0.077837
 H         -7.635142   -3.794973   -0.077791
 H         -8.966344   -3.049202    0.811403
 H         -8.979437   -3.058742   -0.956227
 C         -9.480259    0.057859   -0.136248
 S        -10.797419   -1.143339   -0.069999
 C        -10.084557    1.321028   -0.189812
 C        -12.102790    0.066011   -0.116111
 C        -11.497298    1.320325   -0.178788
 C         -9.624125    2.722727   -0.269111
 C        -13.476165   -0.334539   -0.079544
 C        -11.958657    2.728646   -0.250539
 N        -10.795917    3.499260   -0.302615
 O         -8.497225    3.194104   -0.303119
 C        -14.028415   -1.632314   -0.037733
 S        -14.769789    0.877889   -0.069493
 O        -13.085552    3.200676   -0.266049
 C        -10.805591    4.949278   -0.381358
 C        -15.433965   -1.617802    0.004036
 C        -13.275287   -2.936945   -0.038008
 C        -16.007925   -0.354684   -0.003644
 H         -9.768105    5.282857   -0.416728
 H        -11.331603    5.278618   -1.281958
 H        -11.302250    5.376281    0.494671
 H        -16.019735   -2.530728    0.038603
 H        -12.642221   -3.048717   -0.925680
 H        -12.629702   -3.042226    0.841722
 H        -13.981399   -3.772069   -0.029334
 C        -17.397942   -0.005334    0.032219
 C        -17.981828    1.252739    0.014681
 S        -18.645952   -1.246684    0.113439
 C        -19.389784    1.228807    0.063411
 H        -17.403702    2.169324   -0.033630
 C        -19.928743   -0.046386    0.120161
 H        -19.999943    2.125582    0.056002
 C        -21.314276   -0.443192    0.179670
 C        -21.854434   -1.712689    0.216022
 S        -22.599663    0.758352    0.217752
 C        -23.280962   -1.744830    0.273497
 H        -21.245768   -2.611803    0.200354
 C        -23.813244   -0.480575    0.279975
 C        -24.090916   -3.012895    0.320669
 H        -24.858378   -0.202037    0.318042
 H        -23.901342   -3.637968   -0.560374
 H        -23.837857   -3.612790    1.203305
 H        -25.162719   -2.797646    0.356192
