       107
S0: Total Energy = -6175.13954170
 S         15.752719    1.957876   -0.058521
 C         17.183088    0.967570   -0.009077
 C         16.882518   -0.371193    0.045984
 C         15.482858   -0.631410    0.049683
 C         14.739367    0.542196   -0.003826
 H         17.648884   -1.138627    0.082353
 S         12.097993    1.690226   -0.064026
 C         10.798758    0.491032   -0.019321
 C         11.331036   -0.795788    0.036728
 C         12.737761   -0.843898    0.044932
 C         13.292901    0.434755   -0.006129
 H         10.698321   -1.677541    0.070694
 C         14.310784   -3.331301   -1.467385
 H         15.246067   -3.900765   -1.464399
 H         13.476534   -4.040599   -1.461950
 H         14.263257   -2.742965   -2.388176
 C         14.292875   -3.184637    1.787080
 H         13.457625   -3.891006    1.837241
 H         15.227293   -3.752475    1.845918
 H         14.236443   -2.515160    2.650132
 H         18.157626    1.437704   -0.024048
 C          9.406564    0.844561   -0.038174
 C          8.739559    2.052148   -0.090988
 S          8.188833   -0.447470    0.015770
 C          7.318401    1.958865   -0.089994
 C          9.109019    3.479609   -0.154630
 C          6.814280    0.676480   -0.038320
 C          6.767568    3.327756   -0.152263
 N          7.885661    4.174886   -0.188098
 O         10.207358    4.014265   -0.177026
 O          5.610944    3.720999   -0.171375
 C          7.780333    5.622004   -0.251680
 H          8.793481    6.025469   -0.258763
 H          7.253258    5.926884   -1.160453
 H          7.235017    6.002616    0.616802
 C          5.477497    0.147967   -0.022838
 S          4.039284    1.174097   -0.028902
 C          5.115493   -1.198321    0.000819
 C          3.012333   -0.225331    0.002554
 C          3.727262   -1.425174    0.014623
 H          5.855959   -1.992252    0.005466
 C          1.568764   -0.302223    0.011187
 S          0.398736    0.979914    0.009537
 C          0.985686   -1.571632    0.027983
 C          2.484689   -4.049633   -1.572978
 C          2.495328   -3.999409    1.688294
 C         -0.922408   -0.193502    0.026664
 C         -0.418237   -1.493764    0.035810
 H          3.403077   -4.645552   -1.591842
 H          1.630389   -4.734453   -1.586677
 H          2.451006   -3.430705   -2.474035
 H          1.640888   -4.682949    1.729412
 H          3.413653   -4.594887    1.719823
 H          2.467915   -3.352398    2.569633
 C         -2.307956    0.187308    0.026823
 H         -1.069574   -2.362242    0.049884
 C         -2.950060    1.408778    0.051652
 S         -3.551016   -1.080486   -0.010511
 C         -4.371869    1.344919    0.046118
 C         -2.550806    2.830176    0.088204
 C         -4.902008    0.071830    0.013292
 C         -4.894324    2.726113    0.082323
 N         -3.759029    3.550769    0.105505
 O         -1.441075    3.339892    0.101025
 O         -6.042593    3.142605    0.093142
 C         -3.834301    5.000915    0.142521
 H         -2.813021    5.382891    0.160846
 H         -4.355732    5.378394   -0.741880
 H         -4.370627    5.331485    1.036637
 C         -6.249307   -0.428863   -0.005553
 S         -7.666937    0.625429    0.024167
 C         -6.638178   -1.767064   -0.049528
 C         -8.721094   -0.752862   -0.021859
 C         -8.030607   -1.966169   -0.059390
 H         -5.913969   -2.575490   -0.074477
 C        -10.166605   -0.801816   -0.027494
 S        -11.312149    0.501504    0.014814
 C        -10.774100   -2.058282   -0.071390
 C         -9.312660   -4.481080   -1.783127
 C         -9.323318   -4.596874    1.477025
 C        -12.654332   -0.645012   -0.027970
 C        -12.177415   -1.952854   -0.071236
 H         -8.406090   -5.093509   -1.827013
 H        -10.180184   -5.146924   -1.837576
 H         -9.327564   -3.815887   -2.651117
 H        -10.190744   -5.265062    1.477815
 H         -8.416649   -5.210719    1.482774
 H         -9.344342   -3.995551    2.390306
 C        -14.033559   -0.229919   -0.018197
 H        -12.845621   -2.808064   -0.101399
 C        -14.640337    1.010448    0.031780
 S        -15.314507   -1.461854   -0.078488
 C        -16.065065    0.970281    0.023447
 C        -14.227062    2.427041    0.095752
 C        -16.592921   -0.280621   -0.032975
 C        -16.579840    2.360771    0.082785
 N        -15.430514    3.164795    0.123500
 O        -13.114244    2.926732    0.121873
 H        -17.627967   -0.594096   -0.051007
 O        -17.722650    2.781058    0.096738
 C        -15.481589    4.615172    0.187262
 H        -14.454695    4.980510    0.221671
 H        -15.988811    5.018013   -0.694293
 H        -16.020448    4.937377    1.082917
Ge         14.221233   -2.156050    0.109646
Ge          2.432618   -2.924676    0.040832
Ge         -9.354516   -3.439497   -0.114042
       107
T1: Total Energy = -6175.09566424
 S         15.759178    1.821764   -0.005617
 C         17.164032    0.796053    0.031552
 C         16.831882   -0.536870    0.062889
 C         15.427859   -0.763920    0.057643
 C         14.711499    0.429606    0.021589
 H         17.580067   -1.322364    0.088719
 S         12.102422    1.642991   -0.026995
 C         10.772951    0.471795   -0.007279
 C         11.280177   -0.832592    0.028147
 C         12.680464   -0.911923    0.039821
 C         13.266749    0.357920    0.012546
 H         10.626546   -1.699217    0.045424
 C         14.198796   -3.409364   -1.509678
 H         15.118347   -4.003817   -1.512272
 H         13.345678   -4.095738   -1.520582
 H         14.171794   -2.803686   -2.419954
 C         14.171076   -3.316485    1.748616
 H         13.317467   -4.001389    1.784427
 H         15.090083   -3.909388    1.801578
 H         14.128638   -2.659323    2.621843
 H         18.149872    1.242303    0.027804
 C          9.395729    0.844617   -0.023928
 C          8.747905    2.072744   -0.053933
 S          8.153250   -0.430665   -0.002285
 C          7.338264    2.020294   -0.058809
 C          9.162193    3.494891   -0.085906
 C          6.790228    0.729550   -0.033920
 C          6.823593    3.399629   -0.094468
 N          7.965886    4.223302   -0.108771
 O         10.280141    3.988498   -0.093110
 O          5.678767    3.828013   -0.110769
 C          7.897341    5.673319   -0.143986
 H          8.920331    6.050913   -0.163500
 H          7.361393    6.007872   -1.036879
 H          7.379301    6.053437    0.741408
 C          5.471245    0.250313   -0.029636
 S          4.036531    1.309466   -0.039773
 C          5.074048   -1.120897   -0.014983
 C          2.980661   -0.093543   -0.022250
 C          3.714908   -1.329809   -0.011880
 H          5.811198   -1.917884   -0.008480
 C          1.588499   -0.162728   -0.018113
 S          0.396978    1.128431   -0.020480
 C          0.981264   -1.465430   -0.007835
 C          2.471076   -3.943275   -1.616965
 C          2.472369   -3.910005    1.645347
 C         -0.924276   -0.068460   -0.010367
 C         -0.391472   -1.394269   -0.005066
 H          3.386649   -4.543541   -1.635935
 H          1.613270   -4.623577   -1.636828
 H          2.443278   -3.319085   -2.514517
 H          1.614405   -4.589501    1.680197
 H          3.387830   -4.509939    1.676206
 H          2.445425   -3.267180    2.529689
 C         -2.284030    0.273395   -0.008119
 H         -1.045287   -2.260810    0.002861
 C         -2.963545    1.502381    0.001696
 S         -3.520909   -1.022063   -0.017677
 C         -4.368129    1.409300    0.002738
 C         -2.590629    2.928405    0.015209
 C         -4.887831    0.120076   -0.008265
 C         -4.925209    2.783451    0.016994
 N         -3.814176    3.631355    0.023161
 O         -1.492028    3.462953    0.019553
 O         -6.085597    3.165377    0.023572
 C         -3.915426    5.079987    0.037964
 H         -2.900659    5.479524    0.037622
 H         -4.453428    5.434393   -0.846107
 H         -4.445884    5.417063    0.933337
 C         -6.219759   -0.386819   -0.014203
 S         -7.657328    0.647459    0.008249
 C         -6.593774   -1.738104   -0.038085
 C         -8.689637   -0.749487   -0.013615
 C         -7.976964   -1.956514   -0.038477
 H         -5.856266   -2.534371   -0.055932
 C        -10.128178   -0.822720   -0.011405
 S        -11.296440    0.462696    0.019362
 C        -10.717593   -2.091935   -0.035589
 C         -9.226895   -4.511354   -1.725469
 C         -9.219520   -4.588501    1.536864
 C        -12.619253   -0.707206   -0.001718
 C        -12.120071   -2.009190   -0.030011
 H         -8.310858   -5.109687   -1.766744
 H        -10.084007   -5.191376   -1.768312
 H         -9.256332   -3.856202   -2.600681
 H        -10.076488   -5.269914    1.551031
 H         -8.303389   -5.188092    1.544654
 H         -9.244556   -3.976205    2.442694
 C        -14.003830   -0.316167    0.008674
 H        -12.774728   -2.875166   -0.045549
 C        -14.631879    0.915033    0.045443
 S        -15.264394   -1.570689   -0.031283
 C        -16.055364    0.850006    0.042696
 C        -14.243139    2.339093    0.090375
 C        -16.562046   -0.410460    0.003954
 C        -16.594368    2.231999    0.086057
 N        -15.459335    3.056240    0.112592
 O        -13.139206    2.858728    0.106941
 H        -17.591776   -0.741326   -0.006356
 O        -17.744453    2.632072    0.098331
 C        -15.535382    4.506196    0.157958
 H        -14.514774    4.889901    0.174425
 H        -16.060772    4.887748   -0.722379
 H        -16.068555    4.831320    1.056026
Ge         14.132192   -2.260995    0.087515
Ge          2.419254   -2.827892    0.002951
Ge         -9.277686   -3.452034   -0.068118
       107
S1: Total Energy = -6175.07611425
 S         15.741463    1.892433   -0.016297
 C         17.156481    0.882963    0.033789
 C         16.840425   -0.454951    0.078233
 C         15.441349   -0.699116    0.072977
 C         14.709334    0.487801    0.023400
 H         17.598674   -1.230247    0.113315
 S         12.089435    1.669932   -0.041560
 C         10.774753    0.481174   -0.011896
 C         11.299576   -0.819075    0.037560
 C         12.697745   -0.880196    0.052146
 C         13.269934    0.399588    0.012833
 H         10.656298   -1.693145    0.062397
 C         14.248136   -3.375165   -1.469163
 H         15.174905   -3.958210   -1.464024
 H         13.403465   -4.071911   -1.474390
 H         14.215419   -2.778693   -2.385270
 C         14.212999   -3.246646    1.790616
 H         13.366545   -3.939892    1.833811
 H         15.138118   -3.829104    1.851547
 H         14.162729   -2.579019    2.655393
 H         18.137415    1.339970    0.027164
 C          9.395846    0.836185   -0.033386
 C          8.732549    2.057259   -0.076472
 S          8.165106   -0.450188    0.001577
 C          7.324218    1.984826   -0.080986
 C          9.126845    3.484513   -0.124683
 C          6.794864    0.693046   -0.043834
 C          6.790189    3.358429   -0.132376
 N          7.920241    4.196734   -0.155883
 O         10.237787    3.992766   -0.137689
 O          5.639139    3.768183   -0.153411
 C          7.832438    5.645590   -0.206965
 H          8.850272    6.036741   -0.226992
 H          7.295264    5.963130   -1.105265
 H          7.306119    6.027585    0.672638
 C          5.471973    0.194355   -0.036844
 S          4.035341    1.238476   -0.044249
 C          5.088561   -1.166027   -0.020827
 C          2.993327   -0.160653   -0.023451
 C          3.717534   -1.381757   -0.014685
 H          5.826542   -1.962244   -0.016608
 C          1.579566   -0.229542   -0.017756
 S          0.401963    1.059882   -0.015666
 C          0.980971   -1.515556   -0.008706
 C          2.469611   -3.990249   -1.623083
 C          2.472976   -3.962257    1.640558
 C         -0.923582   -0.123551   -0.006325
 C         -0.404380   -1.440699   -0.004000
 H          3.383516   -4.592948   -1.642916
 H          1.609941   -4.668070   -1.644962
 H          2.443817   -3.363806   -2.519108
 H          1.612990   -4.639072    1.676434
 H          3.386612   -4.565028    1.668794
 H          2.449676   -3.320203    2.525545
 C         -2.288888    0.233430   -0.002579
 H         -1.058985   -2.306373    0.003792
 C         -2.953922    1.464096    0.016897
 S         -3.533245   -1.051555   -0.023001
 C         -4.356668    1.393616    0.018829
 C         -2.557005    2.888199    0.041900
 C         -4.896046    0.103634   -0.002530
 C         -4.890961    2.772255    0.046715
 N         -3.764045    3.607979    0.058815
 O         -1.446611    3.397788    0.047726
 O         -6.042952    3.177954    0.059371
 C         -3.845970    5.057430    0.086241
 H         -2.826153    5.443808    0.099549
 H         -4.370382    5.428099   -0.799433
 H         -4.380846    5.392890    0.979539
 C         -6.221912   -0.385636   -0.012040
 S         -7.656339    0.663237    0.015043
 C         -6.613014   -1.741951   -0.044758
 C         -8.702230   -0.729311   -0.016451
 C         -7.989095   -1.947939   -0.048160
 H         -5.880551   -2.542874   -0.066416
 C        -10.127011   -0.795019   -0.015375
 S        -11.295900    0.496793    0.023130
 C        -10.729019   -2.068932   -0.048055
 C         -9.248989   -4.487672   -1.750612
 C         -9.244665   -4.584504    1.509278
 C        -12.624708   -0.672498   -0.005767
 C        -12.123718   -1.981279   -0.042513
 H         -8.336399   -5.091300   -1.792667
 H        -10.110157   -5.162219   -1.799175
 H         -9.272339   -3.827858   -2.622499
 H        -10.105348   -5.261345    1.519206
 H         -8.331675   -5.189012    1.512376
 H         -9.266064   -3.978423    2.419379
 C        -14.000392   -0.282911    0.007300
 H        -12.782438   -2.844120   -0.063745
 C        -14.632911    0.952584    0.050271
 S        -15.265419   -1.539871   -0.037285
 C        -16.055621    0.883092    0.048093
 C        -14.248630    2.372478    0.101169
 C        -16.562612   -0.377414    0.004052
 C        -16.600298    2.263206    0.097834
 N        -15.469865    3.089171    0.127109
 O        -13.147390    2.901401    0.119935
 H        -17.592749   -0.707021   -0.006990
 O        -17.753549    2.657677    0.112587
 C        -15.547635    4.538065    0.178479
 H        -14.527137    4.922151    0.198656
 H        -16.071321    4.924221   -0.701148
 H        -16.082829    4.859929    1.076746
Ge         14.165169   -2.213202    0.116628
Ge          2.419224   -2.878643   -0.000656
Ge         -9.297862   -3.435962   -0.087833
