       131
S0: Total Energy = -5762.27785099
 N         16.545930   -1.915549    0.654859
 C         17.926548   -1.810283    1.022171
 C         18.151749   -0.388488    1.135973
 C         19.137944    0.554954    1.434254
 N         18.539655    1.807876    1.324483
 C         17.159014    1.703204    0.953567
 C         16.934222    0.282806    0.839918
 C         15.946134   -0.662045    0.544586
 O         18.648774   -2.796609    1.173290
 O         16.438199    2.690849    0.797612
 C         14.577543   -0.404783    0.198060
 C         14.016664    0.863173    0.079282
 C         12.657306    0.853946   -0.281999
 C         12.128811   -0.418127   -0.451706
 S         13.351729   -1.629490   -0.130425
 H         14.601246    1.763566    0.239921
 H         12.090019    1.759667   -0.458390
 C         20.509869    0.296929    1.788364
 C         21.077302   -0.967170    1.885223
 C         22.444609   -0.946497    2.251644
 C         22.930075    0.322984    2.436804
 S         21.719621    1.524916    2.165519
 H         20.503356   -1.867970    1.693304
 H         23.047653   -1.839238    2.373873
 C         10.814547   -0.847246   -0.868350
 C         10.473611   -1.996064   -1.587866
 C          9.088028   -1.982458   -1.787133
 C          8.579984   -0.825495   -1.189233
 H         11.178649   -2.721759   -1.969678
 C         15.954980   -3.226037    0.443012
 H         15.140746   -3.417973    1.148639
 H         15.587721   -3.339057   -0.581501
 H         16.751958   -3.950848    0.616844
 C         19.132912    3.118957    1.525857
 H         19.952819    3.299552    0.823989
 H         19.493934    3.242336    2.551479
 H         18.339050    3.843920    1.339125
 H         23.930160    0.626487    2.717084
 C          7.209508   -0.371860   -1.156746
 C          6.676410    0.909328   -1.129331
 S          5.924152   -1.560496   -1.209234
 C          5.270840    0.943676   -1.167310
 H          7.285407    1.805013   -1.127902
 C          4.676930   -0.313531   -1.227360
 H          4.680576    1.854613   -1.166816
 C          3.262360   -0.545824   -1.284989
 C          2.246656    0.416357   -1.261786
 N          2.633315   -1.787050   -1.372362
 C          2.023603    1.840453   -1.185443
 C          0.984898   -0.231457   -1.333188
 C          1.207821   -1.655502   -1.408001
 C          3.237002   -3.107119   -1.439536
 N          0.598111    1.971594   -1.212280
 O          2.777990    2.812621   -1.114093
 C         -0.031121    0.730489   -1.301385
 O          0.453784   -2.627236   -1.489032
 H          3.814534   -3.330723   -0.537188
 H          3.877677   -3.210366   -2.320563
 H          2.411057   -3.816239   -1.515617
 C         -0.004905    3.292586   -1.157882
 C         -1.445860    0.498416   -1.346515
 H         -0.598120    3.499330   -2.053739
 H         -0.630184    3.411958   -0.267620
 H          0.821873    4.002992   -1.107291
 C         -2.039662   -0.755577   -1.457502
 S         -2.695118    1.740516   -1.258223
 C         -3.445274   -0.720335   -1.491000
 H         -1.448230   -1.663167   -1.526634
 C         -3.978814    0.558310   -1.406035
 H         -4.052035   -1.608218   -1.620619
 C         -5.346082    1.018878   -1.460214
 C         -5.823677    2.233979   -1.959322
 C         -7.217608    2.233939   -1.828824
 H         -5.213389    2.998991   -2.419575
 C         -7.594013    1.018938   -1.249325
 H          8.505393   -2.695730   -2.353936
 H         -7.902774    2.999087   -2.167341
 C         -8.927275    0.558596   -0.938811
 C         -9.467110   -0.719443   -0.922039
 S        -10.160522    1.740645   -0.551570
 C        -10.841542   -0.754991   -0.622967
 H         -8.895355   -1.607183   -1.163617
 C        -11.403466    0.498469   -0.401487
 H        -11.435035   -1.662613   -0.577712
 C        -12.784375    0.731586   -0.086712
 C        -13.786679   -0.229005    0.082218
 N        -13.385688    1.973533    0.115133
 C        -14.019231   -1.653593    0.060725
 C        -15.012012    0.420138    0.391573
 C        -14.779993    1.843400    0.416170
 C        -12.784786    3.294343    0.043860
 N        -15.410900   -1.784264    0.370898
 O        -13.294156   -2.626157   -0.157796
 C        -16.012904   -0.542515    0.570670
 O        -15.506584    2.817641    0.625979
 H        -12.372290    3.494217   -0.949747
 H        -12.001976    3.421072    0.798280
 H        -13.588010    4.005095    0.245034
 C        -16.015232   -3.104397    0.429995
 C        -17.388838   -0.311831    0.900321
 H        -16.409093   -3.321044    1.427827
 H        -16.813251   -3.213143   -0.310669
 H        -15.218905   -3.814657    0.201778
 C        -17.961919    0.944416    1.070808
 S        -18.610728   -1.558571    1.162141
 C        -19.335005    0.910171    1.376445
 H        -17.383250    1.855659    0.955987
 C        -19.864427   -0.370337    1.454237
 H        -19.930458    1.806884    1.492906
 C        -21.211802   -0.830583    1.700565
 C        -21.820864   -2.007458    1.260682
 C        -23.143306   -2.024438    1.752100
 H        -21.352763   -2.748003    0.625832
 C        -23.315821   -0.864692    2.485168
 H        -23.890612   -2.788641    1.588374
 H        -24.173743   -0.496190    3.029847
 N          9.645785   -0.138486   -0.623207
 N         -6.439131    0.282409   -1.021861
 N        -22.153292   -0.139562    2.457587
 C          9.526102    0.994204    0.289906
 H          9.607712    1.950490   -0.237851
 H          8.559002    0.949484    0.792079
 H         10.316507    0.935964    1.039074
 C         -6.365105   -0.939243   -0.226293
 H         -6.427583   -1.835549   -0.852713
 H         -5.421036   -0.955029    0.319508
 H         -7.187745   -0.951249    0.489692
 C        -21.964103    1.114627    3.172906
 H        -20.982307    1.132102    3.651233
 H        -22.050828    1.977361    2.503624
 H        -22.731793    1.193089    3.944974
       131
T1: Total Energy = -5762.24540933
 N         16.662095   -1.917362    0.548317
 C         18.068608   -1.782066    0.775545
 C         18.298310   -0.356863    0.719467
 C         19.306168    0.606428    0.824755
 N         18.695583    1.844534    0.640058
 C         17.287369    1.710133    0.411096
 C         17.057760    0.287030    0.468133
 C         16.048337   -0.678388    0.362995
 O         18.806480   -2.750648    0.963266
 O         16.551111    2.680642    0.220013
 C         14.656511   -0.450404    0.116762
 C         14.081479    0.804685   -0.077225
 C         12.698031    0.768918   -0.310158
 C         12.156643   -0.512824   -0.306304
 S         13.409324   -1.695176    0.022378
 H         14.676577    1.712412   -0.061946
 H         12.116073    1.656404   -0.526061
 C         20.705292    0.377382    1.074402
 C         21.283185   -0.873631    1.250995
 C         22.678813   -0.824135    1.482733
 C         23.176430    0.454155    1.485581
 S         21.942287    1.629599    1.203296
 H         20.696030   -1.785392    1.210124
 H         23.293086   -1.703367    1.641686
 C         10.817266   -0.969281   -0.562384
 C         10.417396   -2.202461   -1.097696
 C          9.028098   -2.193181   -1.208252
 C          8.562475   -0.951915   -0.741142
 H         11.090545   -2.982784   -1.425673
 C         16.058168   -3.238931    0.532987
 H         15.312892   -3.348686    1.326929
 H         15.598321   -3.458220   -0.435372
 H         16.869559   -3.946999    0.709128
 C         19.300404    3.165754    0.649226
 H         20.049095    3.269082   -0.142188
 H         19.757361    3.390445    1.617788
 H         18.490018    3.873143    0.466135
 H         24.197632    0.778336    1.636755
 C          7.210153   -0.486312   -0.696069
 C          6.677923    0.807619   -0.699054
 S          5.904074   -1.670638   -0.698332
 C          5.286383    0.859439   -0.720641
 H          7.293343    1.697881   -0.733588
 C          4.661654   -0.405793   -0.735592
 H          4.706938    1.776406   -0.741831
 C          3.273205   -0.619533   -0.764647
 C          2.236838    0.377384   -0.756707
 N          2.602325   -1.842883   -0.805848
 C          2.036697    1.819234   -0.722407
 C          0.994424   -0.239000   -0.791682
 C          1.194934   -1.681076   -0.825935
 C          3.177086   -3.178021   -0.844089
 N          0.629348    1.980899   -0.738109
 O          2.823905    2.769292   -0.689314
 C         -0.041857    0.757512   -0.780751
 O          0.408173   -2.630918   -0.867153
 H          3.765544   -3.383635    0.055077
 H          3.801775   -3.315650   -1.731487
 H          2.338030   -3.873883   -0.886524
 C          0.055034    3.316629   -0.720980
 C         -1.430265    0.543639   -0.806096
 H         -0.541610    3.503673   -1.618577
 H         -0.561477    3.472950    0.169289
 H          0.894529    4.012916   -0.698784
 C         -2.054384   -0.720599   -0.870703
 S         -2.674240    1.806164   -0.748207
 C         -3.445700   -0.669058   -0.889010
 H         -1.473895   -1.635863   -0.918421
 C         -3.979080    0.623854   -0.841561
 H         -4.059183   -1.556291   -0.984370
 C         -5.329404    1.091024   -0.906107
 C         -5.783275    2.350851   -1.334170
 C         -7.175047    2.354197   -1.266158
 H         -5.149936    3.140932   -1.713844
 C         -7.589031    1.099072   -0.795156
 H          8.406103   -2.965534   -1.639594
 H         -7.839356    3.147231   -1.581378
 C         -8.934437    0.632674   -0.597196
 C         -9.473618   -0.648625   -0.658520
 S        -10.200709    1.803007   -0.272849
 C        -10.863615   -0.693321   -0.470982
 H         -8.884013   -1.528928   -0.882900
 C        -11.447742    0.554485   -0.256767
 H        -11.456702   -1.601880   -0.501482
 C        -12.846462    0.774255   -0.046166
 C        -13.857333   -0.194495    0.006326
 N        -13.469759    2.007094    0.151183
 C        -14.081808   -1.617657   -0.089149
 C        -15.104855    0.440635    0.237053
 C        -14.881672    1.863258    0.332751
 C        -12.870813    3.330452    0.178951
 N        -15.493259   -1.761559    0.098895
 O        -13.336533   -2.580458   -0.283749
 C        -16.115299   -0.529293    0.294971
 O        -15.628650    2.826930    0.519064
 H        -12.382779    3.569741   -0.770793
 H        -12.149908    3.428044    0.996719
 H        -13.690181    4.032066    0.344031
 C        -16.094807   -3.083699    0.058413
 C        -17.513803   -0.311689    0.515798
 H        -16.570641   -3.337011    1.010845
 H        -16.827112   -3.165831   -0.750416
 H        -15.279145   -3.784326   -0.127494
 C        -18.103993    0.937261    0.686109
 S        -18.749690   -1.567831    0.624655
 C        -19.497421    0.891018    0.873161
 H        -17.520818    1.852345    0.655974
 C        -20.027913   -0.391668    0.856095
 H        -20.102469    1.783042    0.974519
 C        -21.389252   -0.861801    0.969206
 C        -21.951567   -2.026070    0.441509
 C        -23.311694   -2.061871    0.814357
 H        -21.425951   -2.745355   -0.172406
 C        -23.553802   -0.925954    1.564984
 H        -24.037719   -2.822554    0.562335
 H        -24.457867   -0.576710    2.043736
 N          9.671989   -0.214654   -0.339666
 N         -6.449446    0.336828   -0.569586
 N        -22.397277   -0.197279    1.661744
 C          9.620310    1.010960    0.451318
 H          9.644548    1.904968   -0.181230
 H          8.703124    1.018480    1.041932
 H         10.474084    1.035448    1.129284
 C         -6.418426   -0.919187    0.173159
 H         -6.427023   -1.787616   -0.494467
 H         -5.516279   -0.951378    0.785701
 H         -7.288961   -0.969091    0.828097
 C        -22.279237    1.034834    2.428738
 H        -21.346383    1.038384    2.996929
 H        -22.306416    1.917169    1.780256
 H        -23.115802    1.089633    3.127821
       131
S1: Total Energy = -5762.22506770
 N         16.711708   -1.915066    0.336358
 C         18.121063   -1.771404    0.513839
 C         18.331742   -0.341158    0.530157
 C         19.335304    0.628422    0.653311
 N         18.700041    1.866097    0.564390
 C         17.287083    1.724695    0.382155
 C         17.077054    0.298184    0.365113
 C         16.070650   -0.675978    0.245299
 O         18.880644   -2.737813    0.615869
 O         16.531186    2.695819    0.275193
 C         14.674259   -0.455552    0.068810
 C         14.075217    0.804155   -0.042676
 C         12.688179    0.764738   -0.214275
 C         12.151530   -0.524358   -0.245837
 S         13.432783   -1.709801   -0.028521
 H         14.663651    1.715907   -0.011144
 H         12.092627    1.656504   -0.364732
 C         20.743388    0.405029    0.835344
 C         21.346228   -0.845532    0.915676
 C         22.748617   -0.787405    1.097407
 C         23.230935    0.495472    1.157901
 S         21.969785    1.666997    0.992320
 H         20.769593   -1.761984    0.842684
 H         23.379855   -1.665288    1.180536
 C         10.812998   -0.979812   -0.464081
 C         10.400495   -2.224358   -0.977553
 C          9.013998   -2.218892   -1.060713
 C          8.551767   -0.969459   -0.600106
 H         11.068273   -3.006787   -1.311435
 C         16.125593   -3.242047    0.261800
 H         15.414273   -3.413658    1.075824
 H         15.629148   -3.407716   -0.699302
 H         16.952715   -3.946997    0.360693
 C         19.287484    3.192907    0.629505
 H         20.006420    3.353671   -0.179872
 H         19.776530    3.368321    1.592805
 H         18.461766    3.897384    0.516658
 H         24.252862    0.825620    1.289566
 C          7.204382   -0.505394   -0.546088
 C          6.674228    0.791532   -0.541689
 S          5.894509   -1.683253   -0.544814
 C          5.282353    0.843978   -0.558748
 H          7.290873    1.680730   -0.577854
 C          4.657887   -0.415830   -0.573900
 H          4.702542    1.761594   -0.576715
 C          3.259113   -0.623238   -0.596988
 C          2.243550    0.365113   -0.583954
 N          2.594179   -1.852825   -0.635283
 C          2.048063    1.798633   -0.551978
 C          0.982751   -0.256881   -0.613248
 C          1.180233   -1.692436   -0.648825
 C          3.170011   -3.186230   -0.675524
 N          0.632897    1.958701   -0.562069
 O          2.828176    2.755937   -0.524313
 C         -0.031552    0.729015   -0.600075
 O          0.399501   -2.647540   -0.686785
 H          3.762773   -3.393947    0.220720
 H          3.790536   -3.326887   -1.565758
 H          2.330011   -3.881642   -0.713696
 C          0.058394    3.292798   -0.544674
 C         -1.433044    0.518698   -0.620583
 H         -0.541114    3.482677   -1.440334
 H         -0.554523    3.454276    0.347671
 H          0.899941    3.987296   -0.526600
 C         -2.056360   -0.739769   -0.676836
 S         -2.666203    1.784750   -0.563449
 C         -3.449125   -0.685745   -0.684415
 H         -1.476614   -1.656066   -0.724700
 C         -3.977187    0.609856   -0.638359
 H         -4.065432   -1.571683   -0.773628
 C         -5.323615    1.077323   -0.698433
 C         -5.775490    2.346449   -1.122988
 C         -7.159711    2.354818   -1.056498
 H         -5.137849    3.134209   -1.499862
 C         -7.585520    1.091910   -0.591748
 H          8.385424   -2.996140   -1.473549
 H         -7.819414    3.151666   -1.372013
 C         -8.924103    0.637944   -0.417539
 C         -9.462591   -0.656072   -0.392102
 S        -10.213959    1.824113   -0.252856
 C        -10.849690   -0.695019   -0.267392
 H         -8.862864   -1.548580   -0.515352
 C        -11.455781    0.568393   -0.185415
 H        -11.437072   -1.607546   -0.249070
 C        -12.851584    0.787306   -0.055922
 C        -13.863670   -0.192539    0.041391
 N        -13.500745    2.021423    0.003097
 C        -14.069293   -1.624697    0.065475
 C        -15.117411    0.438961    0.158636
 C        -14.913535    1.871884    0.134937
 C        -12.918778    3.351674   -0.065552
 N        -15.484645   -1.772426    0.203996
 O        -13.304721   -2.587942   -0.009091
 C        -16.129163   -0.539747    0.260234
 O        -15.682520    2.832467    0.201060
 H        -12.393669    3.509647   -1.012315
 H        -12.235160    3.532945    0.769486
 H        -13.751548    4.053565    0.000396
 C        -16.069097   -3.102324    0.260890
 C        -17.529435   -0.319238    0.395836
 H        -16.583835   -3.271938    1.211538
 H        -16.763062   -3.269106   -0.568245
 H        -15.238895   -3.805264    0.176888
 C        -18.138964    0.937731    0.428472
 S        -18.761876   -1.575314    0.558755
 C        -19.533640    0.893068    0.556821
 H        -17.561394    1.852809    0.342980
 C        -20.057787   -0.395590    0.629159
 H        -20.146935    1.784526    0.551160
 C        -21.414428   -0.867165    0.719418
 C        -21.924876   -2.112828    0.334590
 C        -23.305569   -2.122267    0.606808
 H        -21.347489   -2.904711   -0.123661
 C        -23.616178   -0.890102    1.157732
 H        -24.002881   -2.927174    0.420244
 H        -24.558446   -0.495758    1.511330
 N          9.668844   -0.226009   -0.227080
 N         -6.443834    0.326165   -0.365529
 N        -22.481410   -0.128567    1.227042
 C          9.627241    0.995370    0.570575
 H          9.651853    1.893493   -0.056221
 H          8.713134    1.003289    1.165900
 H         10.484374    1.011398    1.244826
 C         -6.412127   -0.919051    0.396190
 H         -6.449118   -1.797556   -0.256850
 H         -5.494527   -0.953216    0.984808
 H         -7.264133   -0.944924    1.076594
 C        -22.439036    1.205019    1.811943
 H        -21.571595    1.303215    2.468520
 H        -22.396162    1.980605    1.040070
 H        -23.344106    1.351720    2.403884
